/*--------------------------------*- C++ -*----------------------------------*\
  =========                 |
  \\      /  F ield         | OpenFOAM: The Open Source CFD Toolbox
   \\    /   O peration     | Website:  https://openfoam.org
    \\  /    A nd           | Version:  dev
     \\/     M anipulation  |
\*---------------------------------------------------------------------------*/
FoamFile
{
    version     2.0;
    format      ascii;
    class       vectorField;
    object      kinematicCloudPositions;
}
// * * * * * * * * * * * * * * * * * * * * * * * * * * * * * * * * * * * * * //

(

(0.00123456790123	0.000998003992016	0.002)
(0.00123456790123	0.00199600798403	0.002)
(0.00123456790123	0.00299401197605	0.002)
(0.00123456790123	0.00399201596806	0.002)
(0.00123456790123	0.00499001996008	0.002)
(0.00123456790123	0.0059880239521	0.002)
(0.00123456790123	0.00698602794411	0.002)
(0.00123456790123	0.00798403193613	0.002)
(0.00123456790123	0.00898203592814	0.002)
(0.00123456790123	0.00998003992016	0.002)
(0.00123456790123	0.0109780439122	0.002)
(0.00123456790123	0.0119760479042	0.002)
(0.00123456790123	0.0129740518962	0.002)
(0.00123456790123	0.0139720558882	0.002)
(0.00123456790123	0.0149700598802	0.002)
(0.00123456790123	0.0159680638723	0.002)
(0.00123456790123	0.0169660678643	0.002)
(0.00123456790123	0.0179640718563	0.002)
(0.00123456790123	0.0189620758483	0.002)
(0.00123456790123	0.0199600798403	0.002)
(0.00123456790123	0.0209580838323	0.002)
(0.00123456790123	0.0219560878244	0.002)
(0.00123456790123	0.0229540918164	0.002)
(0.00123456790123	0.0239520958084	0.002)
(0.00123456790123	0.0249500998004	0.002)
(0.00123456790123	0.0259481037924	0.002)
(0.00123456790123	0.0269461077844	0.002)
(0.00123456790123	0.0279441117764	0.002)
(0.00123456790123	0.0289421157685	0.002)
(0.00123456790123	0.0299401197605	0.002)
(0.00123456790123	0.0309381237525	0.002)
(0.00123456790123	0.0319361277445	0.002)
(0.00123456790123	0.0329341317365	0.002)
(0.00123456790123	0.0339321357285	0.002)
(0.00123456790123	0.0349301397206	0.002)
(0.00123456790123	0.0359281437126	0.002)
(0.00123456790123	0.0369261477046	0.002)
(0.00123456790123	0.0379241516966	0.002)
(0.00123456790123	0.0389221556886	0.002)
(0.00123456790123	0.0399201596806	0.002)
(0.00123456790123	0.0409181636727	0.002)
(0.00123456790123	0.0419161676647	0.002)
(0.00123456790123	0.0429141716567	0.002)
(0.00123456790123	0.0439121756487	0.002)
(0.00123456790123	0.0449101796407	0.002)
(0.00123456790123	0.0459081836327	0.002)
(0.00123456790123	0.0469061876248	0.002)
(0.00123456790123	0.0479041916168	0.002)
(0.00123456790123	0.0489021956088	0.002)
(0.00123456790123	0.0499001996008	0.002)
(0.00123456790123	0.0508982035928	0.002)
(0.00123456790123	0.0518962075848	0.002)
(0.00123456790123	0.0528942115768	0.002)
(0.00123456790123	0.0538922155689	0.002)
(0.00123456790123	0.0548902195609	0.002)
(0.00123456790123	0.0558882235529	0.002)
(0.00123456790123	0.0568862275449	0.002)
(0.00123456790123	0.0578842315369	0.002)
(0.00123456790123	0.0588822355289	0.002)
(0.00123456790123	0.059880239521	0.002)
(0.00123456790123	0.060878243513	0.002)
(0.00123456790123	0.061876247505	0.002)
(0.00123456790123	0.062874251497	0.002)
(0.00123456790123	0.063872255489	0.002)
(0.00123456790123	0.064870259481	0.002)
(0.00123456790123	0.0658682634731	0.002)
(0.00123456790123	0.0668662674651	0.002)
(0.00123456790123	0.0678642714571	0.002)
(0.00123456790123	0.0688622754491	0.002)
(0.00123456790123	0.0698602794411	0.002)
(0.00123456790123	0.0708582834331	0.002)
(0.00123456790123	0.0718562874251	0.002)
(0.00123456790123	0.0728542914172	0.002)
(0.00123456790123	0.0738522954092	0.002)
(0.00123456790123	0.0748502994012	0.002)
(0.00123456790123	0.0758483033932	0.002)
(0.00123456790123	0.0768463073852	0.002)
(0.00123456790123	0.0778443113772	0.002)
(0.00123456790123	0.0788423153693	0.002)
(0.00123456790123	0.0798403193613	0.002)
(0.00123456790123	0.0808383233533	0.002)
(0.00123456790123	0.0818363273453	0.002)
(0.00123456790123	0.0828343313373	0.002)
(0.00123456790123	0.0838323353293	0.002)
(0.00123456790123	0.0848303393214	0.002)
(0.00123456790123	0.0858283433134	0.002)
(0.00123456790123	0.0868263473054	0.002)
(0.00123456790123	0.0878243512974	0.002)
(0.00123456790123	0.0888223552894	0.002)
(0.00123456790123	0.0898203592814	0.002)
(0.00123456790123	0.0908183632735	0.002)
(0.00123456790123	0.0918163672655	0.002)
(0.00123456790123	0.0928143712575	0.002)
(0.00123456790123	0.0938123752495	0.002)
(0.00123456790123	0.0948103792415	0.002)
(0.00123456790123	0.0958083832335	0.002)
(0.00123456790123	0.0968063872255	0.002)
(0.00123456790123	0.0978043912176	0.002)
(0.00123456790123	0.0988023952096	0.002)
(0.00123456790123	0.0998003992016	0.002)
(0.00123456790123	0.100798403194	0.002)
(0.00123456790123	0.101796407186	0.002)
(0.00123456790123	0.102794411178	0.002)
(0.00123456790123	0.10379241517	0.002)
(0.00123456790123	0.104790419162	0.002)
(0.00123456790123	0.105788423154	0.002)
(0.00123456790123	0.106786427146	0.002)
(0.00123456790123	0.107784431138	0.002)
(0.00123456790123	0.10878243513	0.002)
(0.00123456790123	0.109780439122	0.002)
(0.00123456790123	0.110778443114	0.002)
(0.00123456790123	0.111776447106	0.002)
(0.00123456790123	0.112774451098	0.002)
(0.00123456790123	0.11377245509	0.002)
(0.00123456790123	0.114770459082	0.002)
(0.00123456790123	0.115768463074	0.002)
(0.00123456790123	0.116766467066	0.002)
(0.00123456790123	0.117764471058	0.002)
(0.00123456790123	0.11876247505	0.002)
(0.00123456790123	0.119760479042	0.002)
(0.00123456790123	0.120758483034	0.002)
(0.00123456790123	0.121756487026	0.002)
(0.00123456790123	0.122754491018	0.002)
(0.00123456790123	0.12375249501	0.002)
(0.00123456790123	0.124750499002	0.002)
(0.00123456790123	0.125748502994	0.002)
(0.00123456790123	0.126746506986	0.002)
(0.00123456790123	0.127744510978	0.002)
(0.00123456790123	0.12874251497	0.002)
(0.00123456790123	0.129740518962	0.002)
(0.00123456790123	0.130738522954	0.002)
(0.00123456790123	0.131736526946	0.002)
(0.00123456790123	0.132734530938	0.002)
(0.00123456790123	0.13373253493	0.002)
(0.00123456790123	0.134730538922	0.002)
(0.00123456790123	0.135728542914	0.002)
(0.00123456790123	0.136726546906	0.002)
(0.00123456790123	0.137724550898	0.002)
(0.00123456790123	0.13872255489	0.002)
(0.00123456790123	0.139720558882	0.002)
(0.00123456790123	0.140718562874	0.002)
(0.00123456790123	0.141716566866	0.002)
(0.00123456790123	0.142714570858	0.002)
(0.00123456790123	0.14371257485	0.002)
(0.00123456790123	0.144710578842	0.002)
(0.00123456790123	0.145708582834	0.002)
(0.00123456790123	0.146706586826	0.002)
(0.00123456790123	0.147704590818	0.002)
(0.00123456790123	0.14870259481	0.002)
(0.00123456790123	0.149700598802	0.002)
(0.00123456790123	0.150698602794	0.002)
(0.00123456790123	0.151696606786	0.002)
(0.00123456790123	0.152694610778	0.002)
(0.00123456790123	0.15369261477	0.002)
(0.00123456790123	0.154690618762	0.002)
(0.00123456790123	0.155688622754	0.002)
(0.00123456790123	0.156686626747	0.002)
(0.00123456790123	0.157684630739	0.002)
(0.00123456790123	0.158682634731	0.002)
(0.00123456790123	0.159680638723	0.002)
(0.00123456790123	0.160678642715	0.002)
(0.00123456790123	0.161676646707	0.002)
(0.00123456790123	0.162674650699	0.002)
(0.00123456790123	0.163672654691	0.002)
(0.00123456790123	0.164670658683	0.002)
(0.00123456790123	0.165668662675	0.002)
(0.00123456790123	0.166666666667	0.002)
(0.00123456790123	0.167664670659	0.002)
(0.00123456790123	0.168662674651	0.002)
(0.00123456790123	0.169660678643	0.002)
(0.00123456790123	0.170658682635	0.002)
(0.00123456790123	0.171656686627	0.002)
(0.00123456790123	0.172654690619	0.002)
(0.00123456790123	0.173652694611	0.002)
(0.00123456790123	0.174650698603	0.002)
(0.00123456790123	0.175648702595	0.002)
(0.00123456790123	0.176646706587	0.002)
(0.00123456790123	0.177644710579	0.002)
(0.00123456790123	0.178642714571	0.002)
(0.00123456790123	0.179640718563	0.002)
(0.00123456790123	0.180638722555	0.002)
(0.00123456790123	0.181636726547	0.002)
(0.00123456790123	0.182634730539	0.002)
(0.00123456790123	0.183632734531	0.002)
(0.00123456790123	0.184630738523	0.002)
(0.00123456790123	0.185628742515	0.002)
(0.00123456790123	0.186626746507	0.002)
(0.00123456790123	0.187624750499	0.002)
(0.00123456790123	0.188622754491	0.002)
(0.00123456790123	0.189620758483	0.002)
(0.00123456790123	0.190618762475	0.002)
(0.00123456790123	0.191616766467	0.002)
(0.00123456790123	0.192614770459	0.002)
(0.00123456790123	0.193612774451	0.002)
(0.00123456790123	0.194610778443	0.002)
(0.00123456790123	0.195608782435	0.002)
(0.00123456790123	0.196606786427	0.002)
(0.00123456790123	0.197604790419	0.002)
(0.00123456790123	0.198602794411	0.002)
(0.00123456790123	0.199600798403	0.002)
(0.00123456790123	0.200598802395	0.002)
(0.00123456790123	0.201596806387	0.002)
(0.00123456790123	0.202594810379	0.002)
(0.00123456790123	0.203592814371	0.002)
(0.00123456790123	0.204590818363	0.002)
(0.00123456790123	0.205588822355	0.002)
(0.00123456790123	0.206586826347	0.002)
(0.00123456790123	0.207584830339	0.002)
(0.00123456790123	0.208582834331	0.002)
(0.00123456790123	0.209580838323	0.002)
(0.00123456790123	0.210578842315	0.002)
(0.00123456790123	0.211576846307	0.002)
(0.00123456790123	0.212574850299	0.002)
(0.00123456790123	0.213572854291	0.002)
(0.00123456790123	0.214570858283	0.002)
(0.00123456790123	0.215568862275	0.002)
(0.00123456790123	0.216566866267	0.002)
(0.00123456790123	0.217564870259	0.002)
(0.00123456790123	0.218562874251	0.002)
(0.00123456790123	0.219560878244	0.002)
(0.00123456790123	0.220558882236	0.002)
(0.00123456790123	0.221556886228	0.002)
(0.00123456790123	0.22255489022	0.002)
(0.00123456790123	0.223552894212	0.002)
(0.00123456790123	0.224550898204	0.002)
(0.00123456790123	0.225548902196	0.002)
(0.00123456790123	0.226546906188	0.002)
(0.00123456790123	0.22754491018	0.002)
(0.00123456790123	0.228542914172	0.002)
(0.00123456790123	0.229540918164	0.002)
(0.00123456790123	0.230538922156	0.002)
(0.00123456790123	0.231536926148	0.002)
(0.00123456790123	0.23253493014	0.002)
(0.00123456790123	0.233532934132	0.002)
(0.00123456790123	0.234530938124	0.002)
(0.00123456790123	0.235528942116	0.002)
(0.00123456790123	0.236526946108	0.002)
(0.00123456790123	0.2375249501	0.002)
(0.00123456790123	0.238522954092	0.002)
(0.00123456790123	0.239520958084	0.002)
(0.00123456790123	0.240518962076	0.002)
(0.00123456790123	0.241516966068	0.002)
(0.00123456790123	0.24251497006	0.002)
(0.00123456790123	0.243512974052	0.002)
(0.00123456790123	0.244510978044	0.002)
(0.00123456790123	0.245508982036	0.002)
(0.00123456790123	0.246506986028	0.002)
(0.00123456790123	0.24750499002	0.002)
(0.00123456790123	0.248502994012	0.002)
(0.00123456790123	0.249500998004	0.002)
(0.00123456790123	0.250499001996	0.002)
(0.00123456790123	0.251497005988	0.002)
(0.00123456790123	0.25249500998	0.002)
(0.00123456790123	0.253493013972	0.002)
(0.00123456790123	0.254491017964	0.002)
(0.00123456790123	0.255489021956	0.002)
(0.00123456790123	0.256487025948	0.002)
(0.00123456790123	0.25748502994	0.002)
(0.00123456790123	0.258483033932	0.002)
(0.00123456790123	0.259481037924	0.002)
(0.00123456790123	0.260479041916	0.002)
(0.00123456790123	0.261477045908	0.002)
(0.00123456790123	0.2624750499	0.002)
(0.00123456790123	0.263473053892	0.002)
(0.00123456790123	0.264471057884	0.002)
(0.00123456790123	0.265469061876	0.002)
(0.00123456790123	0.266467065868	0.002)
(0.00123456790123	0.26746506986	0.002)
(0.00123456790123	0.268463073852	0.002)
(0.00123456790123	0.269461077844	0.002)
(0.00123456790123	0.270459081836	0.002)
(0.00123456790123	0.271457085828	0.002)
(0.00123456790123	0.27245508982	0.002)
(0.00123456790123	0.273453093812	0.002)
(0.00123456790123	0.274451097804	0.002)
(0.00123456790123	0.275449101796	0.002)
(0.00123456790123	0.276447105788	0.002)
(0.00123456790123	0.27744510978	0.002)
(0.00123456790123	0.278443113772	0.002)
(0.00123456790123	0.279441117764	0.002)
(0.00123456790123	0.280439121756	0.002)
(0.00123456790123	0.281437125749	0.002)
(0.00123456790123	0.282435129741	0.002)
(0.00123456790123	0.283433133733	0.002)
(0.00123456790123	0.284431137725	0.002)
(0.00123456790123	0.285429141717	0.002)
(0.00123456790123	0.286427145709	0.002)
(0.00123456790123	0.287425149701	0.002)
(0.00123456790123	0.288423153693	0.002)
(0.00123456790123	0.289421157685	0.002)
(0.00123456790123	0.290419161677	0.002)
(0.00123456790123	0.291417165669	0.002)
(0.00123456790123	0.292415169661	0.002)
(0.00123456790123	0.293413173653	0.002)
(0.00123456790123	0.294411177645	0.002)
(0.00123456790123	0.295409181637	0.002)
(0.00123456790123	0.296407185629	0.002)
(0.00123456790123	0.297405189621	0.002)
(0.00123456790123	0.298403193613	0.002)
(0.00123456790123	0.299401197605	0.002)
(0.00123456790123	0.300399201597	0.002)
(0.00123456790123	0.301397205589	0.002)
(0.00123456790123	0.302395209581	0.002)
(0.00123456790123	0.303393213573	0.002)
(0.00123456790123	0.304391217565	0.002)
(0.00123456790123	0.305389221557	0.002)
(0.00123456790123	0.306387225549	0.002)
(0.00123456790123	0.307385229541	0.002)
(0.00123456790123	0.308383233533	0.002)
(0.00123456790123	0.309381237525	0.002)
(0.00123456790123	0.310379241517	0.002)
(0.00123456790123	0.311377245509	0.002)
(0.00123456790123	0.312375249501	0.002)
(0.00123456790123	0.313373253493	0.002)
(0.00123456790123	0.314371257485	0.002)
(0.00123456790123	0.315369261477	0.002)
(0.00123456790123	0.316367265469	0.002)
(0.00123456790123	0.317365269461	0.002)
(0.00123456790123	0.318363273453	0.002)
(0.00123456790123	0.319361277445	0.002)
(0.00123456790123	0.320359281437	0.002)
(0.00123456790123	0.321357285429	0.002)
(0.00123456790123	0.322355289421	0.002)
(0.00123456790123	0.323353293413	0.002)
(0.00123456790123	0.324351297405	0.002)
(0.00123456790123	0.325349301397	0.002)
(0.00123456790123	0.326347305389	0.002)
(0.00123456790123	0.327345309381	0.002)
(0.00123456790123	0.328343313373	0.002)
(0.00123456790123	0.329341317365	0.002)
(0.00123456790123	0.330339321357	0.002)
(0.00123456790123	0.331337325349	0.002)
(0.00123456790123	0.332335329341	0.002)
(0.00123456790123	0.333333333333	0.002)
(0.00123456790123	0.334331337325	0.002)
(0.00123456790123	0.335329341317	0.002)
(0.00123456790123	0.336327345309	0.002)
(0.00123456790123	0.337325349301	0.002)
(0.00123456790123	0.338323353293	0.002)
(0.00123456790123	0.339321357285	0.002)
(0.00123456790123	0.340319361277	0.002)
(0.00123456790123	0.341317365269	0.002)
(0.00123456790123	0.342315369261	0.002)
(0.00123456790123	0.343313373253	0.002)
(0.00123456790123	0.344311377246	0.002)
(0.00123456790123	0.345309381238	0.002)
(0.00123456790123	0.34630738523	0.002)
(0.00123456790123	0.347305389222	0.002)
(0.00123456790123	0.348303393214	0.002)
(0.00123456790123	0.349301397206	0.002)
(0.00123456790123	0.350299401198	0.002)
(0.00123456790123	0.35129740519	0.002)
(0.00123456790123	0.352295409182	0.002)
(0.00123456790123	0.353293413174	0.002)
(0.00123456790123	0.354291417166	0.002)
(0.00123456790123	0.355289421158	0.002)
(0.00123456790123	0.35628742515	0.002)
(0.00123456790123	0.357285429142	0.002)
(0.00123456790123	0.358283433134	0.002)
(0.00123456790123	0.359281437126	0.002)
(0.00123456790123	0.360279441118	0.002)
(0.00123456790123	0.36127744511	0.002)
(0.00123456790123	0.362275449102	0.002)
(0.00123456790123	0.363273453094	0.002)
(0.00123456790123	0.364271457086	0.002)
(0.00123456790123	0.365269461078	0.002)
(0.00123456790123	0.36626746507	0.002)
(0.00123456790123	0.367265469062	0.002)
(0.00123456790123	0.368263473054	0.002)
(0.00123456790123	0.369261477046	0.002)
(0.00123456790123	0.370259481038	0.002)
(0.00123456790123	0.37125748503	0.002)
(0.00123456790123	0.372255489022	0.002)
(0.00123456790123	0.373253493014	0.002)
(0.00123456790123	0.374251497006	0.002)
(0.00123456790123	0.375249500998	0.002)
(0.00123456790123	0.37624750499	0.002)
(0.00123456790123	0.377245508982	0.002)
(0.00123456790123	0.378243512974	0.002)
(0.00123456790123	0.379241516966	0.002)
(0.00123456790123	0.380239520958	0.002)
(0.00123456790123	0.38123752495	0.002)
(0.00123456790123	0.382235528942	0.002)
(0.00123456790123	0.383233532934	0.002)
(0.00123456790123	0.384231536926	0.002)
(0.00123456790123	0.385229540918	0.002)
(0.00123456790123	0.38622754491	0.002)
(0.00123456790123	0.387225548902	0.002)
(0.00123456790123	0.388223552894	0.002)
(0.00123456790123	0.389221556886	0.002)
(0.00123456790123	0.390219560878	0.002)
(0.00123456790123	0.39121756487	0.002)
(0.00123456790123	0.392215568862	0.002)
(0.00123456790123	0.393213572854	0.002)
(0.00123456790123	0.394211576846	0.002)
(0.00123456790123	0.395209580838	0.002)
(0.00123456790123	0.39620758483	0.002)
(0.00123456790123	0.397205588822	0.002)
(0.00123456790123	0.398203592814	0.002)
(0.00123456790123	0.399201596806	0.002)
(0.00123456790123	0.400199600798	0.002)
(0.00123456790123	0.40119760479	0.002)
(0.00123456790123	0.402195608782	0.002)
(0.00123456790123	0.403193612774	0.002)
(0.00123456790123	0.404191616766	0.002)
(0.00123456790123	0.405189620758	0.002)
(0.00123456790123	0.40618762475	0.002)
(0.00123456790123	0.407185628743	0.002)
(0.00123456790123	0.408183632735	0.002)
(0.00123456790123	0.409181636727	0.002)
(0.00123456790123	0.410179640719	0.002)
(0.00123456790123	0.411177644711	0.002)
(0.00123456790123	0.412175648703	0.002)
(0.00123456790123	0.413173652695	0.002)
(0.00123456790123	0.414171656687	0.002)
(0.00123456790123	0.415169660679	0.002)
(0.00123456790123	0.416167664671	0.002)
(0.00123456790123	0.417165668663	0.002)
(0.00123456790123	0.418163672655	0.002)
(0.00123456790123	0.419161676647	0.002)
(0.00123456790123	0.420159680639	0.002)
(0.00123456790123	0.421157684631	0.002)
(0.00123456790123	0.422155688623	0.002)
(0.00123456790123	0.423153692615	0.002)
(0.00123456790123	0.424151696607	0.002)
(0.00123456790123	0.425149700599	0.002)
(0.00123456790123	0.426147704591	0.002)
(0.00123456790123	0.427145708583	0.002)
(0.00123456790123	0.428143712575	0.002)
(0.00123456790123	0.429141716567	0.002)
(0.00123456790123	0.430139720559	0.002)
(0.00123456790123	0.431137724551	0.002)
(0.00123456790123	0.432135728543	0.002)
(0.00123456790123	0.433133732535	0.002)
(0.00123456790123	0.434131736527	0.002)
(0.00123456790123	0.435129740519	0.002)
(0.00123456790123	0.436127744511	0.002)
(0.00123456790123	0.437125748503	0.002)
(0.00123456790123	0.438123752495	0.002)
(0.00123456790123	0.439121756487	0.002)
(0.00123456790123	0.440119760479	0.002)
(0.00123456790123	0.441117764471	0.002)
(0.00123456790123	0.442115768463	0.002)
(0.00123456790123	0.443113772455	0.002)
(0.00123456790123	0.444111776447	0.002)
(0.00123456790123	0.445109780439	0.002)
(0.00123456790123	0.446107784431	0.002)
(0.00123456790123	0.447105788423	0.002)
(0.00123456790123	0.448103792415	0.002)
(0.00123456790123	0.449101796407	0.002)
(0.00123456790123	0.450099800399	0.002)
(0.00123456790123	0.451097804391	0.002)
(0.00123456790123	0.452095808383	0.002)
(0.00123456790123	0.453093812375	0.002)
(0.00123456790123	0.454091816367	0.002)
(0.00123456790123	0.455089820359	0.002)
(0.00123456790123	0.456087824351	0.002)
(0.00123456790123	0.457085828343	0.002)
(0.00123456790123	0.458083832335	0.002)
(0.00123456790123	0.459081836327	0.002)
(0.00123456790123	0.460079840319	0.002)
(0.00123456790123	0.461077844311	0.002)
(0.00123456790123	0.462075848303	0.002)
(0.00123456790123	0.463073852295	0.002)
(0.00123456790123	0.464071856287	0.002)
(0.00123456790123	0.465069860279	0.002)
(0.00123456790123	0.466067864271	0.002)
(0.00123456790123	0.467065868263	0.002)
(0.00123456790123	0.468063872255	0.002)
(0.00123456790123	0.469061876248	0.002)
(0.00123456790123	0.47005988024	0.002)
(0.00123456790123	0.471057884232	0.002)
(0.00123456790123	0.472055888224	0.002)
(0.00123456790123	0.473053892216	0.002)
(0.00123456790123	0.474051896208	0.002)
(0.00123456790123	0.4750499002	0.002)
(0.00123456790123	0.476047904192	0.002)
(0.00123456790123	0.477045908184	0.002)
(0.00123456790123	0.478043912176	0.002)
(0.00123456790123	0.479041916168	0.002)
(0.00123456790123	0.48003992016	0.002)
(0.00123456790123	0.481037924152	0.002)
(0.00123456790123	0.482035928144	0.002)
(0.00123456790123	0.483033932136	0.002)
(0.00123456790123	0.484031936128	0.002)
(0.00123456790123	0.48502994012	0.002)
(0.00123456790123	0.486027944112	0.002)
(0.00123456790123	0.487025948104	0.002)
(0.00123456790123	0.488023952096	0.002)
(0.00123456790123	0.489021956088	0.002)
(0.00123456790123	0.49001996008	0.002)
(0.00123456790123	0.491017964072	0.002)
(0.00123456790123	0.492015968064	0.002)
(0.00123456790123	0.493013972056	0.002)
(0.00123456790123	0.494011976048	0.002)
(0.00123456790123	0.49500998004	0.002)
(0.00123456790123	0.496007984032	0.002)
(0.00123456790123	0.497005988024	0.002)
(0.00123456790123	0.498003992016	0.002)
(0.00123456790123	0.499001996008	0.002)
(0.00246913580247	0.000998003992016	0.002)
(0.00246913580247	0.00199600798403	0.002)
(0.00246913580247	0.00299401197605	0.002)
(0.00246913580247	0.00399201596806	0.002)
(0.00246913580247	0.00499001996008	0.002)
(0.00246913580247	0.0059880239521	0.002)
(0.00246913580247	0.00698602794411	0.002)
(0.00246913580247	0.00798403193613	0.002)
(0.00246913580247	0.00898203592814	0.002)
(0.00246913580247	0.00998003992016	0.002)
(0.00246913580247	0.0109780439122	0.002)
(0.00246913580247	0.0119760479042	0.002)
(0.00246913580247	0.0129740518962	0.002)
(0.00246913580247	0.0139720558882	0.002)
(0.00246913580247	0.0149700598802	0.002)
(0.00246913580247	0.0159680638723	0.002)
(0.00246913580247	0.0169660678643	0.002)
(0.00246913580247	0.0179640718563	0.002)
(0.00246913580247	0.0189620758483	0.002)
(0.00246913580247	0.0199600798403	0.002)
(0.00246913580247	0.0209580838323	0.002)
(0.00246913580247	0.0219560878244	0.002)
(0.00246913580247	0.0229540918164	0.002)
(0.00246913580247	0.0239520958084	0.002)
(0.00246913580247	0.0249500998004	0.002)
(0.00246913580247	0.0259481037924	0.002)
(0.00246913580247	0.0269461077844	0.002)
(0.00246913580247	0.0279441117764	0.002)
(0.00246913580247	0.0289421157685	0.002)
(0.00246913580247	0.0299401197605	0.002)
(0.00246913580247	0.0309381237525	0.002)
(0.00246913580247	0.0319361277445	0.002)
(0.00246913580247	0.0329341317365	0.002)
(0.00246913580247	0.0339321357285	0.002)
(0.00246913580247	0.0349301397206	0.002)
(0.00246913580247	0.0359281437126	0.002)
(0.00246913580247	0.0369261477046	0.002)
(0.00246913580247	0.0379241516966	0.002)
(0.00246913580247	0.0389221556886	0.002)
(0.00246913580247	0.0399201596806	0.002)
(0.00246913580247	0.0409181636727	0.002)
(0.00246913580247	0.0419161676647	0.002)
(0.00246913580247	0.0429141716567	0.002)
(0.00246913580247	0.0439121756487	0.002)
(0.00246913580247	0.0449101796407	0.002)
(0.00246913580247	0.0459081836327	0.002)
(0.00246913580247	0.0469061876248	0.002)
(0.00246913580247	0.0479041916168	0.002)
(0.00246913580247	0.0489021956088	0.002)
(0.00246913580247	0.0499001996008	0.002)
(0.00246913580247	0.0508982035928	0.002)
(0.00246913580247	0.0518962075848	0.002)
(0.00246913580247	0.0528942115768	0.002)
(0.00246913580247	0.0538922155689	0.002)
(0.00246913580247	0.0548902195609	0.002)
(0.00246913580247	0.0558882235529	0.002)
(0.00246913580247	0.0568862275449	0.002)
(0.00246913580247	0.0578842315369	0.002)
(0.00246913580247	0.0588822355289	0.002)
(0.00246913580247	0.059880239521	0.002)
(0.00246913580247	0.060878243513	0.002)
(0.00246913580247	0.061876247505	0.002)
(0.00246913580247	0.062874251497	0.002)
(0.00246913580247	0.063872255489	0.002)
(0.00246913580247	0.064870259481	0.002)
(0.00246913580247	0.0658682634731	0.002)
(0.00246913580247	0.0668662674651	0.002)
(0.00246913580247	0.0678642714571	0.002)
(0.00246913580247	0.0688622754491	0.002)
(0.00246913580247	0.0698602794411	0.002)
(0.00246913580247	0.0708582834331	0.002)
(0.00246913580247	0.0718562874251	0.002)
(0.00246913580247	0.0728542914172	0.002)
(0.00246913580247	0.0738522954092	0.002)
(0.00246913580247	0.0748502994012	0.002)
(0.00246913580247	0.0758483033932	0.002)
(0.00246913580247	0.0768463073852	0.002)
(0.00246913580247	0.0778443113772	0.002)
(0.00246913580247	0.0788423153693	0.002)
(0.00246913580247	0.0798403193613	0.002)
(0.00246913580247	0.0808383233533	0.002)
(0.00246913580247	0.0818363273453	0.002)
(0.00246913580247	0.0828343313373	0.002)
(0.00246913580247	0.0838323353293	0.002)
(0.00246913580247	0.0848303393214	0.002)
(0.00246913580247	0.0858283433134	0.002)
(0.00246913580247	0.0868263473054	0.002)
(0.00246913580247	0.0878243512974	0.002)
(0.00246913580247	0.0888223552894	0.002)
(0.00246913580247	0.0898203592814	0.002)
(0.00246913580247	0.0908183632735	0.002)
(0.00246913580247	0.0918163672655	0.002)
(0.00246913580247	0.0928143712575	0.002)
(0.00246913580247	0.0938123752495	0.002)
(0.00246913580247	0.0948103792415	0.002)
(0.00246913580247	0.0958083832335	0.002)
(0.00246913580247	0.0968063872255	0.002)
(0.00246913580247	0.0978043912176	0.002)
(0.00246913580247	0.0988023952096	0.002)
(0.00246913580247	0.0998003992016	0.002)
(0.00246913580247	0.100798403194	0.002)
(0.00246913580247	0.101796407186	0.002)
(0.00246913580247	0.102794411178	0.002)
(0.00246913580247	0.10379241517	0.002)
(0.00246913580247	0.104790419162	0.002)
(0.00246913580247	0.105788423154	0.002)
(0.00246913580247	0.106786427146	0.002)
(0.00246913580247	0.107784431138	0.002)
(0.00246913580247	0.10878243513	0.002)
(0.00246913580247	0.109780439122	0.002)
(0.00246913580247	0.110778443114	0.002)
(0.00246913580247	0.111776447106	0.002)
(0.00246913580247	0.112774451098	0.002)
(0.00246913580247	0.11377245509	0.002)
(0.00246913580247	0.114770459082	0.002)
(0.00246913580247	0.115768463074	0.002)
(0.00246913580247	0.116766467066	0.002)
(0.00246913580247	0.117764471058	0.002)
(0.00246913580247	0.11876247505	0.002)
(0.00246913580247	0.119760479042	0.002)
(0.00246913580247	0.120758483034	0.002)
(0.00246913580247	0.121756487026	0.002)
(0.00246913580247	0.122754491018	0.002)
(0.00246913580247	0.12375249501	0.002)
(0.00246913580247	0.124750499002	0.002)
(0.00246913580247	0.125748502994	0.002)
(0.00246913580247	0.126746506986	0.002)
(0.00246913580247	0.127744510978	0.002)
(0.00246913580247	0.12874251497	0.002)
(0.00246913580247	0.129740518962	0.002)
(0.00246913580247	0.130738522954	0.002)
(0.00246913580247	0.131736526946	0.002)
(0.00246913580247	0.132734530938	0.002)
(0.00246913580247	0.13373253493	0.002)
(0.00246913580247	0.134730538922	0.002)
(0.00246913580247	0.135728542914	0.002)
(0.00246913580247	0.136726546906	0.002)
(0.00246913580247	0.137724550898	0.002)
(0.00246913580247	0.13872255489	0.002)
(0.00246913580247	0.139720558882	0.002)
(0.00246913580247	0.140718562874	0.002)
(0.00246913580247	0.141716566866	0.002)
(0.00246913580247	0.142714570858	0.002)
(0.00246913580247	0.14371257485	0.002)
(0.00246913580247	0.144710578842	0.002)
(0.00246913580247	0.145708582834	0.002)
(0.00246913580247	0.146706586826	0.002)
(0.00246913580247	0.147704590818	0.002)
(0.00246913580247	0.14870259481	0.002)
(0.00246913580247	0.149700598802	0.002)
(0.00246913580247	0.150698602794	0.002)
(0.00246913580247	0.151696606786	0.002)
(0.00246913580247	0.152694610778	0.002)
(0.00246913580247	0.15369261477	0.002)
(0.00246913580247	0.154690618762	0.002)
(0.00246913580247	0.155688622754	0.002)
(0.00246913580247	0.156686626747	0.002)
(0.00246913580247	0.157684630739	0.002)
(0.00246913580247	0.158682634731	0.002)
(0.00246913580247	0.159680638723	0.002)
(0.00246913580247	0.160678642715	0.002)
(0.00246913580247	0.161676646707	0.002)
(0.00246913580247	0.162674650699	0.002)
(0.00246913580247	0.163672654691	0.002)
(0.00246913580247	0.164670658683	0.002)
(0.00246913580247	0.165668662675	0.002)
(0.00246913580247	0.166666666667	0.002)
(0.00246913580247	0.167664670659	0.002)
(0.00246913580247	0.168662674651	0.002)
(0.00246913580247	0.169660678643	0.002)
(0.00246913580247	0.170658682635	0.002)
(0.00246913580247	0.171656686627	0.002)
(0.00246913580247	0.172654690619	0.002)
(0.00246913580247	0.173652694611	0.002)
(0.00246913580247	0.174650698603	0.002)
(0.00246913580247	0.175648702595	0.002)
(0.00246913580247	0.176646706587	0.002)
(0.00246913580247	0.177644710579	0.002)
(0.00246913580247	0.178642714571	0.002)
(0.00246913580247	0.179640718563	0.002)
(0.00246913580247	0.180638722555	0.002)
(0.00246913580247	0.181636726547	0.002)
(0.00246913580247	0.182634730539	0.002)
(0.00246913580247	0.183632734531	0.002)
(0.00246913580247	0.184630738523	0.002)
(0.00246913580247	0.185628742515	0.002)
(0.00246913580247	0.186626746507	0.002)
(0.00246913580247	0.187624750499	0.002)
(0.00246913580247	0.188622754491	0.002)
(0.00246913580247	0.189620758483	0.002)
(0.00246913580247	0.190618762475	0.002)
(0.00246913580247	0.191616766467	0.002)
(0.00246913580247	0.192614770459	0.002)
(0.00246913580247	0.193612774451	0.002)
(0.00246913580247	0.194610778443	0.002)
(0.00246913580247	0.195608782435	0.002)
(0.00246913580247	0.196606786427	0.002)
(0.00246913580247	0.197604790419	0.002)
(0.00246913580247	0.198602794411	0.002)
(0.00246913580247	0.199600798403	0.002)
(0.00246913580247	0.200598802395	0.002)
(0.00246913580247	0.201596806387	0.002)
(0.00246913580247	0.202594810379	0.002)
(0.00246913580247	0.203592814371	0.002)
(0.00246913580247	0.204590818363	0.002)
(0.00246913580247	0.205588822355	0.002)
(0.00246913580247	0.206586826347	0.002)
(0.00246913580247	0.207584830339	0.002)
(0.00246913580247	0.208582834331	0.002)
(0.00246913580247	0.209580838323	0.002)
(0.00246913580247	0.210578842315	0.002)
(0.00246913580247	0.211576846307	0.002)
(0.00246913580247	0.212574850299	0.002)
(0.00246913580247	0.213572854291	0.002)
(0.00246913580247	0.214570858283	0.002)
(0.00246913580247	0.215568862275	0.002)
(0.00246913580247	0.216566866267	0.002)
(0.00246913580247	0.217564870259	0.002)
(0.00246913580247	0.218562874251	0.002)
(0.00246913580247	0.219560878244	0.002)
(0.00246913580247	0.220558882236	0.002)
(0.00246913580247	0.221556886228	0.002)
(0.00246913580247	0.22255489022	0.002)
(0.00246913580247	0.223552894212	0.002)
(0.00246913580247	0.224550898204	0.002)
(0.00246913580247	0.225548902196	0.002)
(0.00246913580247	0.226546906188	0.002)
(0.00246913580247	0.22754491018	0.002)
(0.00246913580247	0.228542914172	0.002)
(0.00246913580247	0.229540918164	0.002)
(0.00246913580247	0.230538922156	0.002)