/*--------------------------------*- C++ -*----------------------------------*\
  =========                 |
  \\      /  F ield         | OpenFOAM: The Open Source CFD Toolbox
   \\    /   O peration     | Website:  https://openfoam.org
    \\  /    A nd           | Version:  dev
     \\/     M anipulation  |
\*---------------------------------------------------------------------------*/
FoamFile
{
    version     2.0;
    format      ascii;
    class       vectorField;
    object      kinematicCloudPositions;
}
// * * * * * * * * * * * * * * * * * * * * * * * * * * * * * * * * * * * * * //

(
(	0.01	0.01	0.005	)
(	0.02	0.01	0.005	)
(	0.03	0.01	0.005	)
(	0.04	0.01	0.005	)
(	0.05	0.01	0.005	)
(	0.06	0.01	0.005	)
(	0.07	0.01	0.005	)
(	0.08	0.01	0.005	)
(	0.09	0.01	0.005	)
(	0.1	0.01	0.005	)
(	0.11	0.01	0.005	)
(	0.12	0.01	0.005	)
(	0.13	0.01	0.005	)
(	0.14	0.01	0.005	)
(	0.01	0.02	0.005	)
(	0.02	0.02	0.005	)
(	0.03	0.02	0.005	)
(	0.04	0.02	0.005	)
(	0.05	0.02	0.005	)
(	0.06	0.02	0.005	)
(	0.07	0.02	0.005	)
(	0.08	0.02	0.005	)
(	0.09	0.02	0.005	)
(	0.1	0.02	0.005	)
(	0.11	0.02	0.005	)
(	0.12	0.02	0.005	)
(	0.13	0.02	0.005	)
(	0.14	0.02	0.005	)
(	0.01	0.03	0.005	)
(	0.02	0.03	0.005	)
(	0.03	0.03	0.005	)
(	0.04	0.03	0.005	)
(	0.05	0.03	0.005	)
(	0.06	0.03	0.005	)
(	0.07	0.03	0.005	)
(	0.08	0.03	0.005	)
(	0.09	0.03	0.005	)
(	0.1	0.03	0.005	)
(	0.11	0.03	0.005	)
(	0.12	0.03	0.005	)
(	0.13	0.03	0.005	)
(	0.14	0.03	0.005	)
(	0.01	0.04	0.005	)
(	0.02	0.04	0.005	)
(	0.03	0.04	0.005	)
(	0.04	0.04	0.005	)
(	0.05	0.04	0.005	)
(	0.06	0.04	0.005	)
(	0.07	0.04	0.005	)
(	0.08	0.04	0.005	)
(	0.09	0.04	0.005	)
(	0.1	0.04	0.005	)
(	0.11	0.04	0.005	)
(	0.12	0.04	0.005	)
(	0.13	0.04	0.005	)
(	0.14	0.04	0.005	)
(	0.01	0.05	0.005	)
(	0.02	0.05	0.005	)
(	0.03	0.05	0.005	)
(	0.04	0.05	0.005	)
(	0.05	0.05	0.005	)
(	0.06	0.05	0.005	)
(	0.07	0.05	0.005	)
(	0.08	0.05	0.005	)
(	0.09	0.05	0.005	)
(	0.1	0.05	0.005	)
(	0.11	0.05	0.005	)
(	0.12	0.05	0.005	)
(	0.13	0.05	0.005	)
(	0.14	0.05	0.005	)
(	0.01	0.06	0.005	)
(	0.02	0.06	0.005	)
(	0.03	0.06	0.005	)
(	0.04	0.06	0.005	)
(	0.05	0.06	0.005	)
(	0.06	0.06	0.005	)
(	0.07	0.06	0.005	)
(	0.08	0.06	0.005	)
(	0.09	0.06	0.005	)
(	0.1	0.06	0.005	)
(	0.11	0.06	0.005	)
(	0.12	0.06	0.005	)
(	0.13	0.06	0.005	)
(	0.14	0.06	0.005	)
(	0.01	0.07	0.005	)
(	0.02	0.07	0.005	)
(	0.03	0.07	0.005	)
(	0.04	0.07	0.005	)
(	0.05	0.07	0.005	)
(	0.06	0.07	0.005	)
(	0.07	0.07	0.005	)
(	0.08	0.07	0.005	)
(	0.09	0.07	0.005	)
(	0.1	0.07	0.005	)
(	0.11	0.07	0.005	)
(	0.12	0.07	0.005	)
(	0.13	0.07	0.005	)
(	0.14	0.07	0.005	)
(	0.01	0.08	0.005	)
(	0.02	0.08	0.005	)
(	0.03	0.08	0.005	)
(	0.04	0.08	0.005	)
(	0.05	0.08	0.005	)
(	0.06	0.08	0.005	)
(	0.07	0.08	0.005	)
(	0.08	0.08	0.005	)
(	0.09	0.08	0.005	)
(	0.1	0.08	0.005	)
(	0.11	0.08	0.005	)
(	0.12	0.08	0.005	)
(	0.13	0.08	0.005	)
(	0.14	0.08	0.005	)
(	0.01	0.09	0.005	)
(	0.02	0.09	0.005	)
(	0.03	0.09	0.005	)
(	0.04	0.09	0.005	)
(	0.05	0.09	0.005	)
(	0.06	0.09	0.005	)
(	0.07	0.09	0.005	)
(	0.08	0.09	0.005	)
(	0.09	0.09	0.005	)
(	0.1	0.09	0.005	)
(	0.11	0.09	0.005	)
(	0.12	0.09	0.005	)
(	0.13	0.09	0.005	)
(	0.14	0.09	0.005	)
(	0.01	0.1	0.005	)
(	0.02	0.1	0.005	)
(	0.03	0.1	0.005	)
(	0.04	0.1	0.005	)
(	0.05	0.1	0.005	)
(	0.06	0.1	0.005	)
(	0.07	0.1	0.005	)
(	0.08	0.1	0.005	)
(	0.09	0.1	0.005	)
(	0.1	0.1	0.005	)
(	0.11	0.1	0.005	)
(	0.12	0.1	0.005	)
(	0.13	0.1	0.005	)
(	0.14	0.1	0.005	)
(	0.01	0.11	0.005	)
(	0.02	0.11	0.005	)
(	0.03	0.11	0.005	)
(	0.04	0.11	0.005	)
(	0.05	0.11	0.005	)
(	0.06	0.11	0.005	)
(	0.07	0.11	0.005	)
(	0.08	0.11	0.005	)
(	0.09	0.11	0.005	)
(	0.1	0.11	0.005	)
(	0.11	0.11	0.005	)
(	0.12	0.11	0.005	)
(	0.13	0.11	0.005	)
(	0.14	0.11	0.005	)
(	0.01	0.12	0.005	)
(	0.02	0.12	0.005	)
(	0.03	0.12	0.005	)
(	0.04	0.12	0.005	)
(	0.05	0.12	0.005	)
(	0.06	0.12	0.005	)
(	0.07	0.12	0.005	)
(	0.08	0.12	0.005	)
(	0.09	0.12	0.005	)
(	0.1	0.12	0.005	)
(	0.11	0.12	0.005	)
(	0.12	0.12	0.005	)
(	0.13	0.12	0.005	)
(	0.14	0.12	0.005	)
(	0.01	0.13	0.005	)
(	0.02	0.13	0.005	)
(	0.03	0.13	0.005	)
(	0.04	0.13	0.005	)
(	0.05	0.13	0.005	)
(	0.06	0.13	0.005	)
(	0.07	0.13	0.005	)
(	0.08	0.13	0.005	)
(	0.09	0.13	0.005	)
(	0.1	0.13	0.005	)
(	0.11	0.13	0.005	)
(	0.12	0.13	0.005	)
(	0.13	0.13	0.005	)
(	0.14	0.13	0.005	)
(	0.01	0.14	0.005	)
(	0.02	0.14	0.005	)
(	0.03	0.14	0.005	)
(	0.04	0.14	0.005	)
(	0.05	0.14	0.005	)
(	0.06	0.14	0.005	)
(	0.07	0.14	0.005	)
(	0.08	0.14	0.005	)
(	0.09	0.14	0.005	)
(	0.1	0.14	0.005	)
(	0.11	0.14	0.005	)
(	0.12	0.14	0.005	)
(	0.13	0.14	0.005	)
(	0.14	0.14	0.005	)
(	0.01	0.15	0.005	)
(	0.02	0.15	0.005	)
(	0.03	0.15	0.005	)
(	0.04	0.15	0.005	)
(	0.05	0.15	0.005	)
(	0.06	0.15	0.005	)
(	0.07	0.15	0.005	)
(	0.08	0.15	0.005	)
(	0.09	0.15	0.005	)
(	0.1	0.15	0.005	)
(	0.11	0.15	0.005	)
(	0.12	0.15	0.005	)
(	0.13	0.15	0.005	)
(	0.14	0.15	0.005	)
(	0.01	0.16	0.005	)
(	0.02	0.16	0.005	)
(	0.03	0.16	0.005	)
(	0.04	0.16	0.005	)
(	0.05	0.16	0.005	)
(	0.06	0.16	0.005	)
(	0.07	0.16	0.005	)
(	0.08	0.16	0.005	)
(	0.09	0.16	0.005	)
(	0.1	0.16	0.005	)
(	0.11	0.16	0.005	)
(	0.12	0.16	0.005	)
(	0.13	0.16	0.005	)
(	0.14	0.16	0.005	)
(	0.01	0.17	0.005	)
(	0.02	0.17	0.005	)
(	0.03	0.17	0.005	)
(	0.04	0.17	0.005	)
(	0.05	0.17	0.005	)
(	0.06	0.17	0.005	)
(	0.07	0.17	0.005	)
(	0.08	0.17	0.005	)
(	0.09	0.17	0.005	)
(	0.1	0.17	0.005	)
(	0.11	0.17	0.005	)
(	0.12	0.17	0.005	)
(	0.13	0.17	0.005	)
(	0.14	0.17	0.005	)
(	0.01	0.18	0.005	)
(	0.02	0.18	0.005	)
(	0.03	0.18	0.005	)
(	0.04	0.18	0.005	)
(	0.05	0.18	0.005	)
(	0.06	0.18	0.005	)
(	0.07	0.18	0.005	)
(	0.08	0.18	0.005	)
(	0.09	0.18	0.005	)
(	0.1	0.18	0.005	)
(	0.11	0.18	0.005	)
(	0.12	0.18	0.005	)
(	0.13	0.18	0.005	)
(	0.14	0.18	0.005	)
(	0.01	0.19	0.005	)
(	0.02	0.19	0.005	)
(	0.03	0.19	0.005	)
(	0.04	0.19	0.005	)
(	0.05	0.19	0.005	)
(	0.06	0.19	0.005	)
(	0.07	0.19	0.005	)
(	0.08	0.19	0.005	)
(	0.09	0.19	0.005	)
(	0.1	0.19	0.005	)
(	0.11	0.19	0.005	)
(	0.12	0.19	0.005	)
(	0.13	0.19	0.005	)
(	0.14	0.19	0.005	)
(	0.01	0.2	0.005	)
(	0.02	0.2	0.005	)
(	0.03	0.2	0.005	)
(	0.04	0.2	0.005	)
(	0.05	0.2	0.005	)
(	0.06	0.2	0.005	)
(	0.07	0.2	0.005	)
(	0.08	0.2	0.005	)
(	0.09	0.2	0.005	)
(	0.1	0.2	0.005	)
(	0.11	0.2	0.005	)
(	0.12	0.2	0.005	)
(	0.13	0.2	0.005	)
(	0.14	0.2	0.005	)
(	0.01	0.21	0.005	)
(	0.02	0.21	0.005	)
(	0.03	0.21	0.005	)
(	0.04	0.21	0.005	)
(	0.05	0.21	0.005	)
(	0.06	0.21	0.005	)
(	0.07	0.21	0.005	)
(	0.08	0.21	0.005	)
(	0.09	0.21	0.005	)
(	0.1	0.21	0.005	)
(	0.11	0.21	0.005	)
(	0.12	0.21	0.005	)
(	0.13	0.21	0.005	)
(	0.14	0.21	0.005	)
(	0.01	0.22	0.005	)
(	0.02	0.22	0.005	)
(	0.03	0.22	0.005	)
(	0.04	0.22	0.005	)
(	0.05	0.22	0.005	)
(	0.06	0.22	0.005	)
(	0.07	0.22	0.005	)
(	0.08	0.22	0.005	)
(	0.09	0.22	0.005	)
(	0.1	0.22	0.005	)
(	0.11	0.22	0.005	)
(	0.12	0.22	0.005	)
(	0.13	0.22	0.005	)
(	0.14	0.22	0.005	)
(	0.01	0.23	0.005	)
(	0.02	0.23	0.005	)
(	0.03	0.23	0.005	)
(	0.04	0.23	0.005	)
(	0.05	0.23	0.005	)
(	0.06	0.23	0.005	)
(	0.07	0.23	0.005	)
(	0.08	0.23	0.005	)
(	0.09	0.23	0.005	)
(	0.1	0.23	0.005	)
(	0.11	0.23	0.005	)
(	0.12	0.23	0.005	)
(	0.13	0.23	0.005	)
(	0.14	0.23	0.005	)
(	0.01	0.24	0.005	)
(	0.02	0.24	0.005	)
(	0.03	0.24	0.005	)
(	0.04	0.24	0.005	)
(	0.05	0.24	0.005	)
(	0.06	0.24	0.005	)
(	0.07	0.24	0.005	)
(	0.08	0.24	0.005	)
(	0.09	0.24	0.005	)
(	0.1	0.24	0.005	)
(	0.11	0.24	0.005	)
(	0.12	0.24	0.005	)
(	0.13	0.24	0.005	)
(	0.14	0.24	0.005	)
(	0.01	0.25	0.005	)
(	0.02	0.25	0.005	)
(	0.03	0.25	0.005	)
(	0.04	0.25	0.005	)
(	0.05	0.25	0.005	)
(	0.06	0.25	0.005	)
(	0.07	0.25	0.005	)
(	0.08	0.25	0.005	)
(	0.09	0.25	0.005	)
(	0.1	0.25	0.005	)
(	0.11	0.25	0.005	)
(	0.12	0.25	0.005	)
(	0.13	0.25	0.005	)
(	0.14	0.25	0.005	)
(	0.01	0.26	0.005	)
(	0.02	0.26	0.005	)
(	0.03	0.26	0.005	)
(	0.04	0.26	0.005	)
(	0.05	0.26	0.005	)
(	0.06	0.26	0.005	)
(	0.07	0.26	0.005	)
(	0.08	0.26	0.005	)
(	0.09	0.26	0.005	)
(	0.1	0.26	0.005	)
(	0.11	0.26	0.005	)
(	0.12	0.26	0.005	)
(	0.13	0.26	0.005	)
(	0.14	0.26	0.005	)
(	0.01	0.27	0.005	)
(	0.02	0.27	0.005	)
(	0.03	0.27	0.005	)
(	0.04	0.27	0.005	)
(	0.05	0.27	0.005	)
(	0.06	0.27	0.005	)
(	0.07	0.27	0.005	)
(	0.08	0.27	0.005	)
(	0.09	0.27	0.005	)
(	0.1	0.27	0.005	)
(	0.11	0.27	0.005	)
(	0.12	0.27	0.005	)
(	0.13	0.27	0.005	)
(	0.14	0.27	0.005	)
(	0.01	0.28	0.005	)
(	0.02	0.28	0.005	)
(	0.03	0.28	0.005	)
(	0.04	0.28	0.005	)
(	0.05	0.28	0.005	)
(	0.06	0.28	0.005	)
(	0.07	0.28	0.005	)
(	0.08	0.28	0.005	)
(	0.09	0.28	0.005	)
(	0.1	0.28	0.005	)
(	0.11	0.28	0.005	)
(	0.12	0.28	0.005	)
(	0.13	0.28	0.005	)
(	0.14	0.28	0.005	)
(	0.01	0.29	0.005	)
(	0.02	0.29	0.005	)
(	0.03	0.29	0.005	)
(	0.04	0.29	0.005	)
(	0.05	0.29	0.005	)
(	0.06	0.29	0.005	)
(	0.07	0.29	0.005	)
(	0.08	0.29	0.005	)
(	0.09	0.29	0.005	)
(	0.1	0.29	0.005	)
(	0.11	0.29	0.005	)
(	0.12	0.29	0.005	)
(	0.13	0.29	0.005	)
(	0.14	0.29	0.005	)
(	0.01	0.3	0.005	)
(	0.02	0.3	0.005	)
(	0.03	0.3	0.005	)
(	0.04	0.3	0.005	)
(	0.05	0.3	0.005	)
(	0.06	0.3	0.005	)
(	0.07	0.3	0.005	)
(	0.08	0.3	0.005	)
(	0.09	0.3	0.005	)
(	0.1	0.3	0.005	)
(	0.11	0.3	0.005	)
(	0.12	0.3	0.005	)
(	0.13	0.3	0.005	)
(	0.14	0.3	0.005	)
(	0.01	0.31	0.005	)
(	0.02	0.31	0.005	)
(	0.03	0.31	0.005	)
(	0.04	0.31	0.005	)
(	0.05	0.31	0.005	)
(	0.06	0.31	0.005	)
(	0.07	0.31	0.005	)
(	0.08	0.31	0.005	)
(	0.09	0.31	0.005	)
(	0.1	0.31	0.005	)
(	0.11	0.31	0.005	)
(	0.12	0.31	0.005	)
(	0.13	0.31	0.005	)
(	0.14	0.31	0.005	)
(	0.01	0.32	0.005	)
(	0.02	0.32	0.005	)
(	0.03	0.32	0.005	)
(	0.04	0.32	0.005	)
(	0.05	0.32	0.005	)
(	0.06	0.32	0.005	)
(	0.07	0.32	0.005	)
(	0.08	0.32	0.005	)
(	0.09	0.32	0.005	)
(	0.1	0.32	0.005	)
(	0.11	0.32	0.005	)
(	0.12	0.32	0.005	)
(	0.13	0.32	0.005	)
(	0.14	0.32	0.005	)
(	0.01	0.33	0.005	)
(	0.02	0.33	0.005	)
(	0.03	0.33	0.005	)
(	0.04	0.33	0.005	)
(	0.05	0.33	0.005	)
(	0.06	0.33	0.005	)
(	0.07	0.33	0.005	)
(	0.08	0.33	0.005	)
(	0.09	0.33	0.005	)
(	0.1	0.33	0.005	)
(	0.11	0.33	0.005	)
(	0.12	0.33	0.005	)
(	0.13	0.33	0.005	)
(	0.14	0.33	0.005	)
(	0.01	0.34	0.005	)
(	0.02	0.34	0.005	)
(	0.03	0.34	0.005	)
(	0.04	0.34	0.005	)
(	0.05	0.34	0.005	)
(	0.06	0.34	0.005	)
(	0.07	0.34	0.005	)
(	0.08	0.34	0.005	)
(	0.09	0.34	0.005	)
(	0.1	0.34	0.005	)
(	0.11	0.34	0.005	)
(	0.12	0.34	0.005	)
(	0.13	0.34	0.005	)
(	0.14	0.34	0.005	)
(	0.01	0.35	0.005	)
(	0.02	0.35	0.005	)
(	0.03	0.35	0.005	)
(	0.04	0.35	0.005	)
(	0.05	0.35	0.005	)
(	0.06	0.35	0.005	)
(	0.07	0.35	0.005	)
(	0.08	0.35	0.005	)
(	0.09	0.35	0.005	)
(	0.1	0.35	0.005	)
(	0.11	0.35	0.005	)
(	0.12	0.35	0.005	)
(	0.13	0.35	0.005	)
(	0.14	0.35	0.005	)
(	0.01	0.36	0.005	)
(	0.02	0.36	0.005	)
(	0.03	0.36	0.005	)
(	0.04	0.36	0.005	)
(	0.05	0.36	0.005	)
(	0.06	0.36	0.005	)
(	0.07	0.36	0.005	)
(	0.08	0.36	0.005	)
(	0.09	0.36	0.005	)
(	0.1	0.36	0.005	)
(	0.11	0.36	0.005	)
(	0.12	0.36	0.005	)
(	0.13	0.36	0.005	)
(	0.14	0.36	0.005	)
(	0.01	0.37	0.005	)
(	0.02	0.37	0.005	)
(	0.03	0.37	0.005	)
(	0.04	0.37	0.005	)
(	0.05	0.37	0.005	)
(	0.06	0.37	0.005	)
(	0.07	0.37	0.005	)
(	0.08	0.37	0.005	)
(	0.09	0.37	0.005	)
(	0.1	0.37	0.005	)
(	0.11	0.37	0.005	)
(	0.12	0.37	0.005	)
(	0.13	0.37	0.005	)
(	0.14	0.37	0.005	)
(	0.01	0.38	0.005	)
(	0.02	0.38	0.005	)
(	0.03	0.38	0.005	)
(	0.04	0.38	0.005	)
(	0.05	0.38	0.005	)
(	0.06	0.38	0.005	)
(	0.07	0.38	0.005	)
(	0.08	0.38	0.005	)
(	0.09	0.38	0.005	)
(	0.1	0.38	0.005	)
(	0.11	0.38	0.005	)
(	0.12	0.38	0.005	)
(	0.13	0.38	0.005	)
(	0.14	0.38	0.005	)
(	0.01	0.39	0.005	)
(	0.02	0.39	0.005	)
(	0.03	0.39	0.005	)
(	0.04	0.39	0.005	)
(	0.05	0.39	0.005	)
(	0.06	0.39	0.005	)
(	0.07	0.39	0.005	)
(	0.08	0.39	0.005	)
(	0.09	0.39	0.005	)
(	0.1	0.39	0.005	)
(	0.11	0.39	0.005	)
(	0.12	0.39	0.005	)
(	0.13	0.39	0.005	)
(	0.14	0.39	0.005	)
(	0.01	0.4	0.005	)
(	0.02	0.4	0.005	)
(	0.03	0.4	0.005	)
(	0.04	0.4	0.005	)
(	0.05	0.4	0.005	)
(	0.06	0.4	0.005	)
(	0.07	0.4	0.005	)
(	0.08	0.4	0.005	)
(	0.09	0.4	0.005	)
(	0.1	0.4	0.005	)
(	0.11	0.4	0.005	)
(	0.12	0.4	0.005	)
(	0.13	0.4	0.005	)
(	0.14	0.4	0.005	)
(	0.01	0.41	0.005	)
(	0.02	0.41	0.005	)
(	0.03	0.41	0.005	)
(	0.04	0.41	0.005	)
(	0.05	0.41	0.005	)
(	0.06	0.41	0.005	)
(	0.07	0.41	0.005	)
(	0.08	0.41	0.005	)
(	0.09	0.41	0.005	)
(	0.1	0.41	0.005	)
(	0.11	0.41	0.005	)
(	0.12	0.41	0.005	)
(	0.13	0.41	0.005	)
(	0.14	0.41	0.005	)
(	0.01	0.42	0.005	)
(	0.02	0.42	0.005	)
(	0.03	0.42	0.005	)
(	0.04	0.42	0.005	)
(	0.05	0.42	0.005	)
(	0.06	0.42	0.005	)
(	0.07	0.42	0.005	)
(	0.08	0.42	0.005	)
(	0.09	0.42	0.005	)
(	0.1	0.42	0.005	)
(	0.11	0.42	0.005	)
(	0.12	0.42	0.005	)
(	0.13	0.42	0.005	)
(	0.14	0.42	0.005	)
(	0.01	0.43	0.005	)
(	0.02	0.43	0.005	)
(	0.03	0.43	0.005	)
(	0.04	0.43	0.005	)
(	0.05	0.43	0.005	)
(	0.06	0.43	0.005	)
(	0.07	0.43	0.005	)
(	0.08	0.43	0.005	)
(	0.09	0.43	0.005	)
(	0.1	0.43	0.005	)
(	0.11	0.43	0.005	)
(	0.12	0.43	0.005	)
(	0.13	0.43	0.005	)
(	0.14	0.43	0.005	)
(	0.01	0.44	0.005	)
(	0.02	0.44	0.005	)
(	0.03	0.44	0.005	)
(	0.04	0.44	0.005	)
(	0.05	0.44	0.005	)
(	0.06	0.44	0.005	)
(	0.07	0.44	0.005	)
(	0.08	0.44	0.005	)
(	0.09	0.44	0.005	)
(	0.1	0.44	0.005	)
(	0.11	0.44	0.005	)
(	0.12	0.44	0.005	)
(	0.13	0.44	0.005	)
(	0.14	0.44	0.005	)
(	0.01	0.45	0.005	)
(	0.02	0.45	0.005	)
(	0.03	0.45	0.005	)
(	0.04	0.45	0.005	)
(	0.05	0.45	0.005	)
(	0.06	0.45	0.005	)
(	0.07	0.45	0.005	)
(	0.08	0.45	0.005	)
(	0.09	0.45	0.005	)
(	0.1	0.45	0.005	)
(	0.11	0.45	0.005	)
(	0.12	0.45	0.005	)
(	0.13	0.45	0.005	)
(	0.14	0.45	0.005	)
(	0.01	0.46	0.005	)
(	0.02	0.46	0.005	)
(	0.03	0.46	0.005	)
(	0.04	0.46	0.005	)
(	0.05	0.46	0.005	)
(	0.06	0.46	0.005	)
(	0.07	0.46	0.005	)
(	0.08	0.46	0.005	)
(	0.09	0.46	0.005	)
(	0.1	0.46	0.005	)
(	0.11	0.46	0.005	)
(	0.12	0.46	0.005	)
(	0.13	0.46	0.005	)
(	0.14	0.46	0.005	)
(	0.01	0.47	0.005	)
(	0.02	0.47	0.005	)
(	0.03	0.47	0.005	)
(	0.04	0.47	0.005	)
(	0.05	0.47	0.005	)
(	0.06	0.47	0.005	)
(	0.07	0.47	0.005	)
(	0.08	0.47	0.005	)
(	0.09	0.47	0.005	)
(	0.1	0.47	0.005	)
(	0.11	0.47	0.005	)
(	0.12	0.47	0.005	)
(	0.13	0.47	0.005	)
(	0.14	0.47	0.005	)
(	0.01	0.48	0.005	)
(	0.02	0.48	0.005	)
(	0.03	0.48	0.005	)
(	0.04	0.48	0.005	)
(	0.05	0.48	0.005	)
(	0.06	0.48	0.005	)
(	0.07	0.48	0.005	)
(	0.08	0.48	0.005	)
(	0.09	0.48	0.005	)
(	0.1	0.48	0.005	)
(	0.11	0.48	0.005	)
(	0.12	0.48	0.005	)
(	0.13	0.48	0.005	)
(	0.14	0.48	0.005	)
(	0.01	0.49	0.005	)
(	0.02	0.49	0.005	)
(	0.03	0.49	0.005	)
(	0.04	0.49	0.005	)
(	0.05	0.49	0.005	)
(	0.06	0.49	0.005	)
(	0.07	0.49	0.005	)
(	0.08	0.49	0.005	)
(	0.09	0.49	0.005	)
(	0.1	0.49	0.005	)
(	0.11	0.49	0.005	)
(	0.12	0.49	0.005	)
(	0.13	0.49	0.005	)
(	0.14	0.49	0.005	)
(	0.01	0.5	0.005	)
(	0.02	0.5	0.005	)
(	0.03	0.5	0.005	)
(	0.04	0.5	0.005	)
(	0.05	0.5	0.005	)
(	0.06	0.5	0.005	)
(	0.07	0.5	0.005	)
(	0.08	0.5	0.005	)
(	0.09	0.5	0.005	)
(	0.1	0.5	0.005	)
(	0.11	0.5	0.005	)
(	0.12	0.5	0.005	)
(	0.13	0.5	0.005	)
(	0.14	0.5	0.005	)
(	0.01	0.51	0.005	)
(	0.02	0.51	0.005	)
(	0.03	0.51	0.005	)
(	0.04	0.51	0.005	)
(	0.05	0.51	0.005	)
(	0.06	0.51	0.005	)
(	0.07	0.51	0.005	)
(	0.08	0.51	0.005	)
(	0.09	0.51	0.005	)
(	0.1	0.51	0.005	)
(	0.11	0.51	0.005	)
(	0.12	0.51	0.005	)
(	0.13	0.51	0.005	)
(	0.14	0.51	0.005	)
(	0.01	0.52	0.005	)
(	0.02	0.52	0.005	)
(	0.03	0.52	0.005	)
(	0.04	0.52	0.005	)
(	0.05	0.52	0.005	)
(	0.06	0.52	0.005	)
(	0.07	0.52	0.005	)
(	0.08	0.52	0.005	)
(	0.09	0.52	0.005	)
(	0.1	0.52	0.005	)
(	0.11	0.52	0.005	)
(	0.12	0.52	0.005	)
(	0.13	0.52	0.005	)
(	0.14	0.52	0.005	)
(	0.01	0.53	0.005	)
(	0.02	0.53	0.005	)
(	0.03	0.53	0.005	)
(	0.04	0.53	0.005	)
(	0.05	0.53	0.005	)
(	0.06	0.53	0.005	)
(	0.07	0.53	0.005	)
(	0.08	0.53	0.005	)
(	0.09	0.53	0.005	)
(	0.1	0.53	0.005	)
(	0.11	0.53	0.005	)
(	0.12	0.53	0.005	)
(	0.13	0.53	0.005	)
(	0.14	0.53	0.005	)
(	0.01	0.54	0.005	)
(	0.02	0.54	0.005	)
(	0.03	0.54	0.005	)
(	0.04	0.54	0.005	)
(	0.05	0.54	0.005	)
(	0.06	0.54	0.005	)
(	0.07	0.54	0.005	)
(	0.08	0.54	0.005	)
(	0.09	0.54	0.005	)
(	0.1	0.54	0.005	)
(	0.11	0.54	0.005	)
(	0.12	0.54	0.005	)
(	0.13	0.54	0.005	)
(	0.14	0.54	0.005	)
(	0.01	0.55	0.005	)
(	0.02	0.55	0.005	)
(	0.03	0.55	0.005	)
(	0.04	0.55	0.005	)
(	0.05	0.55	0.005	)
(	0.06	0.55	0.005	)
(	0.07	0.55	0.005	)
(	0.08	0.55	0.005	)
(	0.09	0.55	0.005	)
(	0.1	0.55	0.005	)
(	0.11	0.55	0.005	)
(	0.12	0.55	0.005	)
(	0.13	0.55	0.005	)
(	0.14	0.55	0.005	)
(	0.01	0.56	0.005	)
(	0.02	0.56	0.005	)
(	0.03	0.56	0.005	)
(	0.04	0.56	0.005	)
(	0.05	0.56	0.005	)
(	0.06	0.56	0.005	)
(	0.07	0.56	0.005	)
(	0.08	0.56	0.005	)
(	0.09	0.56	0.005	)
(	0.1	0.56	0.005	)
(	0.11	0.56	0.005	)
(	0.12	0.56	0.005	)
(	0.13	0.56	0.005	)
(	0.14	0.56	0.005	)
(	0.01	0.57	0.005	)
(	0.02	0.57	0.005	)
(	0.03	0.57	0.005	)
(	0.04	0.57	0.005	)
(	0.05	0.57	0.005	)
(	0.06	0.57	0.005	)
(	0.07	0.57	0.005	)
(	0.08	0.57	0.005	)
(	0.09	0.57	0.005	)
(	0.1	0.57	0.005	)
(	0.11	0.57	0.005	)
(	0.12	0.57	0.005	)
(	0.13	0.57	0.005	)
(	0.14	0.57	0.005	)
(	0.01	0.58	0.005	)
(	0.02	0.58	0.005	)
(	0.03	0.58	0.005	)
(	0.04	0.58	0.005	)
(	0.05	0.58	0.005	)
(	0.06	0.58	0.005	)
(	0.07	0.58	0.005	)
(	0.08	0.58	0.005	)
(	0.09	0.58	0.005	)
(	0.1	0.58	0.005	)
(	0.11	0.58	0.005	)
(	0.12	0.58	0.005	)
(	0.13	0.58	0.005	)
(	0.14	0.58	0.005	)
(	0.01	0.59	0.005	)
(	0.02	0.59	0.005	)
(	0.03	0.59	0.005	)
(	0.04	0.59	0.005	)
(	0.05	0.59	0.005	)
(	0.06	0.59	0.005	)
(	0.07	0.59	0.005	)
(	0.08	0.59	0.005	)
(	0.09	0.59	0.005	)
(	0.1	0.59	0.005	)
(	0.11	0.59	0.005	)
(	0.12	0.59	0.005	)
(	0.13	0.59	0.005	)
(	0.14	0.59	0.005	)
(	0.01	0.6	0.005	)
(	0.02	0.6	0.005	)
(	0.03	0.6	0.005	)
(	0.04	0.6	0.005	)
(	0.05	0.6	0.005	)
(	0.06	0.6	0.005	)
(	0.07	0.6	0.005	)
(	0.08	0.6	0.005	)
(	0.09	0.6	0.005	)
(	0.1	0.6	0.005	)
(	0.11	0.6	0.005	)
(	0.12	0.6	0.005	)
(	0.13	0.6	0.005	)
(	0.14	0.6	0.005	)
(	0.01	0.61	0.005	)
(	0.02	0.61	0.005	)
(	0.03	0.61	0.005	)
(	0.04	0.61	0.005	)
(	0.05	0.61	0.005	)
(	0.06	0.61	0.005	)
(	0.07	0.61	0.005	)
(	0.08	0.61	0.005	)
(	0.09	0.61	0.005	)
(	0.1	0.61	0.005	)
(	0.11	0.61	0.005	)
(	0.12	0.61	0.005	)
(	0.13	0.61	0.005	)
(	0.14	0.61	0.005	)
(	0.01	0.62	0.005	)
(	0.02	0.62	0.005	)
(	0.03	0.62	0.005	)
(	0.04	0.62	0.005	)
(	0.05	0.62	0.005	)
(	0.06	0.62	0.005	)
(	0.07	0.62	0.005	)
(	0.08	0.62	0.005	)
(	0.09	0.62	0.005	)
(	0.1	0.62	0.005	)
(	0.11	0.62	0.005	)
(	0.12	0.62	0.005	)
(	0.13	0.62	0.005	)
(	0.14	0.62	0.005	)
(	0.01	0.63	0.005	)
(	0.02	0.63	0.005	)
(	0.03	0.63	0.005	)
(	0.04	0.63	0.005	)
(	0.05	0.63	0.005	)
(	0.06	0.63	0.005	)
(	0.07	0.63	0.005	)
(	0.08	0.63	0.005	)
(	0.09	0.63	0.005	)
(	0.1	0.63	0.005	)
(	0.11	0.63	0.005	)
(	0.12	0.63	0.005	)
(	0.13	0.63	0.005	)
(	0.14	0.63	0.005	)
(	0.01	0.64	0.005	)
(	0.02	0.64	0.005	)
(	0.03	0.64	0.005	)
(	0.04	0.64	0.005	)
(	0.05	0.64	0.005	)
(	0.06	0.64	0.005	)
(	0.07	0.64	0.005	)
(	0.08	0.64	0.005	)
(	0.09	0.64	0.005	)
(	0.1	0.64	0.005	)
(	0.11	0.64	0.005	)
(	0.12	0.64	0.005	)
(	0.13	0.64	0.005	)
(	0.14	0.64	0.005	)
(	0.01	0.65	0.005	)
(	0.02	0.65	0.005	)
(	0.03	0.65	0.005	)
(	0.04	0.65	0.005	)
(	0.05	0.65	0.005	)
(	0.06	0.65	0.005	)
(	0.07	0.65	0.005	)
(	0.08	0.65	0.005	)
(	0.09	0.65	0.005	)
(	0.1	0.65	0.005	)
(	0.11	0.65	0.005	)
(	0.12	0.65	0.005	)
(	0.13	0.65	0.005	)
(	0.14	0.65	0.005	)
(	0.01	0.66	0.005	)
(	0.02	0.66	0.005	)
(	0.03	0.66	0.005	)
(	0.04	0.66	0.005	)
(	0.05	0.66	0.005	)
(	0.06	0.66	0.005	)
(	0.07	0.66	0.005	)
(	0.08	0.66	0.005	)
(	0.09	0.66	0.005	)
(	0.1	0.66	0.005	)
(	0.11	0.66	0.005	)
(	0.12	0.66	0.005	)
(	0.13	0.66	0.005	)
(	0.14	0.66	0.005	)
(	0.01	0.67	0.005	)
(	0.02	0.67	0.005	)
(	0.03	0.67	0.005	)
(	0.04	0.67	0.005	)
(	0.05	0.67	0.005	)
(	0.06	0.67	0.005	)
(	0.07	0.67	0.005	)
(	0.08	0.67	0.005	)
(	0.09	0.67	0.005	)
(	0.1	0.67	0.005	)
(	0.11	0.67	0.005	)
(	0.12	0.67	0.005	)
(	0.13	0.67	0.005	)
(	0.14	0.67	0.005	)
(	0.01	0.68	0.005	)
(	0.02	0.68	0.005	)
(	0.03	0.68	0.005	)
(	0.04	0.68	0.005	)
(	0.05	0.68	0.005	)
(	0.06	0.68	0.005	)
(	0.07	0.68	0.005	)
(	0.08	0.68	0.005	)
(	0.09	0.68	0.005	)
(	0.1	0.68	0.005	)
(	0.11	0.68	0.005	)
(	0.12	0.68	0.005	)
(	0.13	0.68	0.005	)
(	0.14	0.68	0.005	)
(	0.01	0.69	0.005	)
(	0.02	0.69	0.005	)
(	0.03	0.69	0.005	)
(	0.04	0.69	0.005	)
(	0.05	0.69	0.005	)
(	0.06	0.69	0.005	)
(	0.07	0.69	0.005	)
(	0.08	0.69	0.005	)
(	0.09	0.69	0.005	)
(	0.1	0.69	0.005	)
(	0.11	0.69	0.005	)
(	0.12	0.69	0.005	)
(	0.13	0.69	0.005	)
(	0.14	0.69	0.005	)
(	0.01	0.7	0.005	)
(	0.02	0.7	0.005	)
(	0.03	0.7	0.005	)
(	0.04	0.7	0.005	)
(	0.05	0.7	0.005	)
(	0.06	0.7	0.005	)
(	0.07	0.7	0.005	)
(	0.08	0.7	0.005	)
(	0.09	0.7	0.005	)
(	0.1	0.7	0.005	)
(	0.11	0.7	0.005	)
(	0.12	0.7	0.005	)
(	0.13	0.7	0.005	)
(	0.14	0.7	0.005	)
(	0.01	0.71	0.005	)
(	0.02	0.71	0.005	)
(	0.03	0.71	0.005	)
(	0.04	0.71	0.005	)
(	0.05	0.71	0.005	)
(	0.06	0.71	0.005	)
(	0.07	0.71	0.005	)
(	0.08	0.71	0.005	)
(	0.09	0.71	0.005	)
(	0.1	0.71	0.005	)
(	0.11	0.71	0.005	)
(	0.12	0.71	0.005	)
(	0.13	0.71	0.005	)
(	0.14	0.71	0.005	)
(	0.01	0.72	0.005	)
(	0.02	0.72	0.005	)
(	0.03	0.72	0.005	)
(	0.04	0.72	0.005	)
(	0.05	0.72	0.005	)
(	0.06	0.72	0.005	)
(	0.07	0.72	0.005	)
(	0.08	0.72	0.005	)
(	0.09	0.72	0.005	)
(	0.1	0.72	0.005	)
(	0.11	0.72	0.005	)
(	0.12	0.72	0.005	)
(	0.13	0.72	0.005	)
(	0.14	0.72	0.005	)
(	0.01	0.73	0.005	)
(	0.02	0.73	0.005	)
(	0.03	0.73	0.005	)
(	0.04	0.73	0.005	)
(	0.05	0.73	0.005	)
(	0.06	0.73	0.005	)
(	0.07	0.73	0.005	)
(	0.08	0.73	0.005	)
(	0.09	0.73	0.005	)
(	0.1	0.73	0.005	)
(	0.11	0.73	0.005	)
(	0.12	0.73	0.005	)
(	0.13	0.73	0.005	)
(	0.14	0.73	0.005	)
(	0.01	0.74	0.005	)
(	0.02	0.74	0.005	)
(	0.03	0.74	0.005	)
(	0.04	0.74	0.005	)
(	0.05	0.74	0.005	)
(	0.06	0.74	0.005	)
(	0.07	0.74	0.005	)
(	0.08	0.74	0.005	)
(	0.09	0.74	0.005	)
(	0.1	0.74	0.005	)
(	0.11	0.74	0.005	)
(	0.12	0.74	0.005	)
(	0.13	0.74	0.005	)
(	0.14	0.74	0.005	)
(	0.01	0.75	0.005	)
(	0.02	0.75	0.005	)
(	0.03	0.75	0.005	)
(	0.04	0.75	0.005	)
(	0.05	0.75	0.005	)
(	0.06	0.75	0.005	)
(	0.07	0.75	0.005	)
(	0.08	0.75	0.005	)
(	0.09	0.75	0.005	)
(	0.1	0.75	0.005	)
(	0.11	0.75	0.005	)
(	0.12	0.75	0.005	)
(	0.13	0.75	0.005	)
(	0.14	0.75	0.005	)
(	0.01	0.76	0.005	)
(	0.02	0.76	0.005	)
(	0.03	0.76	0.005	)
(	0.04	0.76	0.005	)
(	0.05	0.76	0.005	)
(	0.06	0.76	0.005	)
(	0.07	0.76	0.005	)
(	0.08	0.76	0.005	)
(	0.09	0.76	0.005	)
(	0.1	0.76	0.005	)
(	0.11	0.76	0.005	)
(	0.12	0.76	0.005	)
(	0.13	0.76	0.005	)
(	0.14	0.76	0.005	)
(	0.01	0.77	0.005	)
(	0.02	0.77	0.005	)
(	0.03	0.77	0.005	)
(	0.04	0.77	0.005	)
(	0.05	0.77	0.005	)
(	0.06	0.77	0.005	)
(	0.07	0.77	0.005	)
(	0.08	0.77	0.005	)
(	0.09	0.77	0.005	)
(	0.1	0.77	0.005	)
(	0.11	0.77	0.005	)
(	0.12	0.77	0.005	)
(	0.13	0.77	0.005	)
(	0.14	0.77	0.005	)
(	0.01	0.78	0.005	)
(	0.02	0.78	0.005	)
(	0.03	0.78	0.005	)
(	0.04	0.78	0.005	)
(	0.05	0.78	0.005	)
(	0.06	0.78	0.005	)
(	0.07	0.78	0.005	)
(	0.08	0.78	0.005	)
(	0.09	0.78	0.005	)
(	0.1	0.78	0.005	)
(	0.11	0.78	0.005	)
(	0.12	0.78	0.005	)
(	0.13	0.78	0.005	)
(	0.14	0.78	0.005	)
(	0.01	0.790000000000001	0.005	)
(	0.02	0.790000000000001	0.005	)
(	0.03	0.790000000000001	0.005	)
(	0.04	0.790000000000001	0.005	)
(	0.05	0.790000000000001	0.005	)
(	0.06	0.790000000000001	0.005	)
(	0.07	0.790000000000001	0.005	)
(	0.08	0.790000000000001	0.005	)
(	0.09	0.790000000000001	0.005	)
(	0.1	0.790000000000001	0.005	)
(	0.11	0.790000000000001	0.005	)
(	0.12	0.790000000000001	0.005	)
(	0.13	0.790000000000001	0.005	)
(	0.14	0.790000000000001	0.005	)
(	0.01	0.8	0.005	)
(	0.02	0.8	0.005	)
(	0.03	0.8	0.005	)
(	0.04	0.8	0.005	)
(	0.05	0.8	0.005	)
(	0.06	0.8	0.005	)
(	0.07	0.8	0.005	)
(	0.08	0.8	0.005	)
(	0.09	0.8	0.005	)
(	0.1	0.8	0.005	)
(	0.11	0.8	0.005	)
(	0.12	0.8	0.005	)
(	0.13	0.8	0.005	)
(	0.14	0.8	0.005	)
(	0.011	0.01	0.005	)
(	0.021	0.01	0.005	)
(	0.031	0.01	0.005	)
(	0.041	0.01	0.005	)
(	0.051	0.01	0.005	)
(	0.061	0.01	0.005	)
(	0.071	0.01	0.005	)
(	0.081	0.01	0.005	)
(	0.091	0.01	0.005	)
(	0.101	0.01	0.005	)
(	0.111	0.01	0.005	)
(	0.121	0.01	0.005	)
(	0.131	0.01	0.005	)
(	0.141	0.01	0.005	)
(	0.011	0.02	0.005	)
(	0.021	0.02	0.005	)
(	0.031	0.02	0.005	)
(	0.041	0.02	0.005	)
(	0.051	0.02	0.005	)
(	0.061	0.02	0.005	)
(	0.071	0.02	0.005	)
(	0.081	0.02	0.005	)
(	0.091	0.02	0.005	)
(	0.101	0.02	0.005	)
(	0.111	0.02	0.005	)
(	0.121	0.02	0.005	)
(	0.131	0.02	0.005	)
(	0.141	0.02	0.005	)
(	0.011	0.03	0.005	)
(	0.021	0.03	0.005	)
(	0.031	0.03	0.005	)
(	0.041	0.03	0.005	)
(	0.051	0.03	0.005	)
(	0.061	0.03	0.005	)
(	0.071	0.03	0.005	)
(	0.081	0.03	0.005	)
(	0.091	0.03	0.005	)
(	0.101	0.03	0.005	)
(	0.111	0.03	0.005	)
(	0.121	0.03	0.005	)
(	0.131	0.03	0.005	)
(	0.141	0.03	0.005	)
(	0.011	0.04	0.005	)
(	0.021	0.04	0.005	)
(	0.031	0.04	0.005	)
(	0.041	0.04	0.005	)
(	0.051	0.04	0.005	)
(	0.061	0.04	0.005	)
(	0.071	0.04	0.005	)
(	0.081	0.04	0.005	)
(	0.091	0.04	0.005	)
(	0.101	0.04	0.005	)
(	0.111	0.04	0.005	)
(	0.121	0.04	0.005	)
(	0.131	0.04	0.005	)
(	0.141	0.04	0.005	)
(	0.011	0.05	0.005	)
(	0.021	0.05	0.005	)
(	0.031	0.05	0.005	)
(	0.041	0.05	0.005	)
(	0.051	0.05	0.005	)
(	0.061	0.05	0.005	)
(	0.071	0.05	0.005	)
(	0.081	0.05	0.005	)
(	0.091	0.05	0.005	)
(	0.101	0.05	0.005	)
(	0.111	0.05	0.005	)
(	0.121	0.05	0.005	)
(	0.131	0.05	0.005	)
(	0.141	0.05	0.005	)
(	0.011	0.06	0.005	)
(	0.021	0.06	0.005	)
(	0.031	0.06	0.005	)
(	0.041	0.06	0.005	)
(	0.051	0.06	0.005	)
(	0.061	0.06	0.005	)
(	0.071	0.06	0.005	)
(	0.081	0.06	0.005	)
(	0.091	0.06	0.005	)
(	0.101	0.06	0.005	)
(	0.111	0.06	0.005	)
(	0.121	0.06	0.005	)
(	0.131	0.06	0.005	)
(	0.141	0.06	0.005	)
(	0.011	0.07	0.005	)
(	0.021	0.07	0.005	)
(	0.031	0.07	0.005	)
(	0.041	0.07	0.005	)
(	0.051	0.07	0.005	)
(	0.061	0.07	0.005	)
(	0.071	0.07	0.005	)
(	0.081	0.07	0.005	)
(	0.091	0.07	0.005	)
(	0.101	0.07	0.005	)
(	0.111	0.07	0.005	)
(	0.121	0.07	0.005	)
(	0.131	0.07	0.005	)
(	0.141	0.07	0.005	)
(	0.011	0.08	0.005	)
(	0.021	0.08	0.005	)
(	0.031	0.08	0.005	)
(	0.041	0.08	0.005	)
(	0.051	0.08	0.005	)
(	0.061	0.08	0.005	)
(	0.071	0.08	0.005	)
(	0.081	0.08	0.005	)
(	0.091	0.08	0.005	)
(	0.101	0.08	0.005	)
(	0.111	0.08	0.005	)
(	0.121	0.08	0.005	)
(	0.131	0.08	0.005	)
(	0.141	0.08	0.005	)
(	0.011	0.09	0.005	)
(	0.021	0.09	0.005	)
(	0.031	0.09	0.005	)
(	0.041	0.09	0.005	)
(	0.051	0.09	0.005	)
(	0.061	0.09	0.005	)
(	0.071	0.09	0.005	)
(	0.081	0.09	0.005	)
(	0.091	0.09	0.005	)
(	0.101	0.09	0.005	)
(	0.111	0.09	0.005	)
(	0.121	0.09	0.005	)
(	0.131	0.09	0.005	)
(	0.141	0.09	0.005	)
(	0.011	0.1	0.005	)
(	0.021	0.1	0.005	)
(	0.031	0.1	0.005	)
(	0.041	0.1	0.005	)
(	0.051	0.1	0.005	)
(	0.061	0.1	0.005	)
(	0.071	0.1	0.005	)
(	0.081	0.1	0.005	)
(	0.091	0.1	0.005	)
(	0.101	0.1	0.005	)
(	0.111	0.1	0.005	)
(	0.121	0.1	0.005	)
(	0.131	0.1	0.005	)
(	0.141	0.1	0.005	)
(	0.011	0.11	0.005	)
(	0.021	0.11	0.005	)
(	0.031	0.11	0.005	)
(	0.041	0.11	0.005	)
(	0.051	0.11	0.005	)
(	0.061	0.11	0.005	)
(	0.071	0.11	0.005	)
(	0.081	0.11	0.005	)
(	0.091	0.11	0.005	)
(	0.101	0.11	0.005	)
(	0.111	0.11	0.005	)
(	0.121	0.11	0.005	)
(	0.131	0.11	0.005	)
(	0.141	0.11	0.005	)
(	0.011	0.12	0.005	)
(	0.021	0.12	0.005	)
(	0.031	0.12	0.005	)
(	0.041	0.12	0.005	)
(	0.051	0.12	0.005	)
(	0.061	0.12	0.005	)
(	0.071	0.12	0.005	)
(	0.081	0.12	0.005	)
(	0.091	0.12	0.005	)
(	0.101	0.12	0.005	)
(	0.111	0.12	0.005	)
(	0.121	0.12	0.005	)
(	0.131	0.12	0.005	)
(	0.141	0.12	0.005	)
(	0.011	0.13	0.005	)
(	0.021	0.13	0.005	)
(	0.031	0.13	0.005	)
(	0.041	0.13	0.005	)
(	0.051	0.13	0.005	)
(	0.061	0.13	0.005	)
(	0.071	0.13	0.005	)
(	0.081	0.13	0.005	)
(	0.091	0.13	0.005	)
(	0.101	0.13	0.005	)
(	0.111	0.13	0.005	)
(	0.121	0.13	0.005	)
(	0.131	0.13	0.005	)
(	0.141	0.13	0.005	)
(	0.011	0.14	0.005	)
(	0.021	0.14	0.005	)
(	0.031	0.14	0.005	)
(	0.041	0.14	0.005	)
(	0.051	0.14	0.005	)
(	0.061	0.14	0.005	)
(	0.071	0.14	0.005	)
(	0.081	0.14	0.005	)
(	0.091	0.14	0.005	)
(	0.101	0.14	0.005	)
(	0.111	0.14	0.005	)
(	0.121	0.14	0.005	)
(	0.131	0.14	0.005	)
(	0.141	0.14	0.005	)
(	0.011	0.15	0.005	)
(	0.021	0.15	0.005	)
(	0.031	0.15	0.005	)
(	0.041	0.15	0.005	)
(	0.051	0.15	0.005	)
(	0.061	0.15	0.005	)
(	0.071	0.15	0.005	)
(	0.081	0.15	0.005	)
(	0.091	0.15	0.005	)
(	0.101	0.15	0.005	)
(	0.111	0.15	0.005	)
(	0.121	0.15	0.005	)
(	0.131	0.15	0.005	)
(	0.141	0.15	0.005	)
(	0.011	0.16	0.005	)
(	0.021	0.16	0.005	)
(	0.031	0.16	0.005	)
(	0.041	0.16	0.005	)
(	0.051	0.16	0.005	)
(	0.061	0.16	0.005	)
(	0.071	0.16	0.005	)
(	0.081	0.16	0.005	)
(	0.091	0.16	0.005	)
(	0.101	0.16	0.005	)
(	0.111	0.16	0.005	)
(	0.121	0.16	0.005	)
(	0.131	0.16	0.005	)
(	0.141	0.16	0.005	)
(	0.011	0.17	0.005	)
(	0.021	0.17	0.005	)
(	0.031	0.17	0.005	)
(	0.041	0.17	0.005	)
(	0.051	0.17	0.005	)
(	0.061	0.17	0.005	)
(	0.071	0.17	0.005	)
(	0.081	0.17	0.005	)
(	0.091	0.17	0.005	)
(	0.101	0.17	0.005	)
(	0.111	0.17	0.005	)
(	0.121	0.17	0.005	)
(	0.131	0.17	0.005	)
(	0.141	0.17	0.005	)
(	0.011	0.18	0.005	)
(	0.021	0.18	0.005	)
(	0.031	0.18	0.005	)
(	0.041	0.18	0.005	)
(	0.051	0.18	0.005	)
(	0.061	0.18	0.005	)
(	0.071	0.18	0.005	)
(	0.081	0.18	0.005	)
(	0.091	0.18	0.005	)
(	0.101	0.18	0.005	)
(	0.111	0.18	0.005	)
(	0.121	0.18	0.005	)
(	0.131	0.18	0.005	)
(	0.141	0.18	0.005	)
(	0.011	0.19	0.005	)
(	0.021	0.19	0.005	)
(	0.031	0.19	0.005	)
(	0.041	0.19	0.005	)
(	0.051	0.19	0.005	)
(	0.061	0.19	0.005	)
(	0.071	0.19	0.005	)
(	0.081	0.19	0.005	)
(	0.091	0.19	0.005	)
(	0.101	0.19	0.005	)
(	0.111	0.19	0.005	)
(	0.121	0.19	0.005	)
(	0.131	0.19	0.005	)
(	0.141	0.19	0.005	)
(	0.011	0.2	0.005	)
(	0.021	0.2	0.005	)
(	0.031	0.2	0.005	)
(	0.041	0.2	0.005	)
(	0.051	0.2	0.005	)
(	0.061	0.2	0.005	)
(	0.071	0.2	0.005	)
(	0.081	0.2	0.005	)
(	0.091	0.2	0.005	)
(	0.101	0.2	0.005	)
(	0.111	0.2	0.005	)
(	0.121	0.2	0.005	)
(	0.131	0.2	0.005	)
(	0.141	0.2	0.005	)
(	0.011	0.21	0.005	)
(	0.021	0.21	0.005	)
(	0.031	0.21	0.005	)
(	0.041	0.21	0.005	)
(	0.051	0.21	0.005	)
(	0.061	0.21	0.005	)
(	0.071	0.21	0.005	)
(	0.081	0.21	0.005	)
(	0.091	0.21	0.005	)
(	0.101	0.21	0.005	)
(	0.111	0.21	0.005	)
(	0.121	0.21	0.005	)
(	0.131	0.21	0.005	)
(	0.141	0.21	0.005	)
(	0.011	0.22	0.005	)
(	0.021	0.22	0.005	)
(	0.031	0.22	0.005	)
(	0.041	0.22	0.005	)
(	0.051	0.22	0.005	)
(	0.061	0.22	0.005	)
(	0.071	0.22	0.005	)
(	0.081	0.22	0.005	)
(	0.091	0.22	0.005	)
(	0.101	0.22	0.005	)
(	0.111	0.22	0.005	)
(	0.121	0.22	0.005	)
(	0.131	0.22	0.005	)
(	0.141	0.22	0.005	)
(	0.011	0.23	0.005	)
(	0.021	0.23	0.005	)
(	0.031	0.23	0.005	)
(	0.041	0.23	0.005	)
(	0.051	0.23	0.005	)
(	0.061	0.23	0.005	)
(	0.071	0.23	0.005	)
(	0.081	0.23	0.005	)
(	0.091	0.23	0.005	)
(	0.101	0.23	0.005	)
(	0.111	0.23	0.005	)
(	0.121	0.23	0.005	)
(	0.131	0.23	0.005	)
(	0.141	0.23	0.005	)
(	0.011	0.24	0.005	)
(	0.021	0.24	0.005	)
(	0.031	0.24	0.005	)
(	0.041	0.24	0.005	)
(	0.051	0.24	0.005	)
(	0.061	0.24	0.005	)
(	0.071	0.24	0.005	)
(	0.081	0.24	0.005	)
(	0.091	0.24	0.005	)
(	0.101	0.24	0.005	)
(	0.111	0.24	0.005	)
(	0.121	0.24	0.005	)
(	0.131	0.24	0.005	)