/*--------------------------------*- C++ -*----------------------------------*\
  =========                 |
  \\      /  F ield         | OpenFOAM: The Open Source CFD Toolbox
   \\    /   O peration     | Website:  https://openfoam.org
    \\  /    A nd           | Version:  dev
     \\/     M anipulation  |
\*---------------------------------------------------------------------------*/
FoamFile
{
    version     2.0;
    format      ascii;
    class       vectorField;
    object      kinematicCloudPositions;
}
// * * * * * * * * * * * * * * * * * * * * * * * * * * * * * * * * * * * * * //

(
(	0.01	0.01	0.005	)
(	0.02	0.01	0.005	)
(	0.03	0.01	0.005	)
(	0.04	0.01	0.005	)
(	0.05	0.01	0.005	)
(	0.06	0.01	0.005	)
(	0.07	0.01	0.005	)
(	0.08	0.01	0.005	)
(	0.09	0.01	0.005	)


)

// ************************************************************************* //
