/*--------------------------------*- C++ -*----------------------------------*\
  =========                 |
  \\      /  F ield         | OpenFOAM: The Open Source CFD Toolbox
   \\    /   O peration     | Website:  https://openfoam.org
    \\  /    A nd           | Version:  dev
     \\/     M anipulation  |
\*---------------------------------------------------------------------------*/
FoamFile
{
    version     2.0;
    format      ascii;
    class       vectorField;
    object      kinematicCloudPositions;
}
// * * * * * * * * * * * * * * * * * * * * * * * * * * * * * * * * * * * * * //

(
(	0.075	0.8	0.05	)
(	0.075	0.78	0.05	)
(	0.075	0.76	0.05	)
(	0.075	0.74	0.05	)
(	0.075	0.72	0.05	)
(	0.075	0.7	0.05	)
(	0.075	0.68	0.05	)
(	0.075	0.66	0.05	)
(	0.075	0.64	0.05	)
(	0.075	0.62	0.05	)
(	0.075	0.6	0.05	)
(	0.075	0.58	0.05	)
(	0.075	0.56	0.05	)
(	0.075	0.54	0.05	)
(	0.075	0.52	0.05	)
(	0.075	0.5	0.05	)
(	0.075	0.48	0.05	)
(	0.075	0.46	0.05	)
(	0.075	0.44	0.05	)
(	0.075	0.42	0.05	)
(	0.075	0.4	0.05	)
(	0.075	0.38	0.05	)
(	0.075	0.36	0.05	)
(	0.075	0.34	0.05	)
(	0.075	0.32	0.05	)
(	0.075	0.3	0.05	)
(	0.075	0.28	0.05	)
(	0.075	0.26	0.05	)
(	0.075	0.24	0.05	)
(	0.075	0.22	0.05	)
(	0.075	0.2	0.05	)
(	0.075	0.18	0.05	)
(	0.075	0.16	0.05	)
(	0.075	0.14	0.05	)
(	0.075	0.12	0.05	)
(	0.075	0.1	0.05	)
(	0.075	0.08	0.05	)
(	0.075	0.06	0.05	)
(	0.07	0.8	0.05	)
(	0.07	0.78	0.05	)
(	0.07	0.76	0.05	)
(	0.07	0.74	0.05	)
(	0.07	0.72	0.05	)
(	0.07	0.7	0.05	)
(	0.07	0.68	0.05	)
(	0.07	0.66	0.05	)
(	0.07	0.64	0.05	)
(	0.07	0.62	0.05	)
(	0.07	0.6	0.05	)
(	0.07	0.58	0.05	)
(	0.07	0.56	0.05	)
(	0.07	0.54	0.05	)
(	0.07	0.52	0.05	)
(	0.07	0.5	0.05	)
(	0.07	0.48	0.05	)
(	0.07	0.46	0.05	)
(	0.07	0.44	0.05	)
(	0.07	0.42	0.05	)
(	0.07	0.4	0.05	)
(	0.07	0.38	0.05	)
(	0.07	0.36	0.05	)
(	0.07	0.34	0.05	)
(	0.07	0.32	0.05	)
(	0.07	0.3	0.05	)
(	0.07	0.28	0.05	)
(	0.07	0.26	0.05	)
(	0.07	0.24	0.05	)
(	0.07	0.22	0.05	)
(	0.07	0.2	0.05	)
(	0.07	0.18	0.05	)
(	0.07	0.16	0.05	)
(	0.07	0.14	0.05	)
(	0.07	0.12	0.05	)
(	0.07	0.1	0.05	)
(	0.07	0.08	0.05	)
(	0.07	0.06	0.05	)
(	0.05	0.8	0.05	)
(	0.05	0.78	0.05	)
(	0.05	0.76	0.05	)
(	0.05	0.74	0.05	)
(	0.05	0.72	0.05	)
(	0.05	0.7	0.05	)
(	0.05	0.68	0.05	)
(	0.05	0.66	0.05	)
(	0.05	0.64	0.05	)
(	0.05	0.62	0.05	)
(	0.05	0.6	0.05	)
(	0.05	0.58	0.05	)
(	0.05	0.56	0.05	)
(	0.05	0.54	0.05	)
(	0.05	0.52	0.05	)
(	0.05	0.5	0.05	)
(	0.05	0.48	0.05	)
(	0.05	0.46	0.05	)
(	0.05	0.44	0.05	)
(	0.05	0.42	0.05	)
(	0.05	0.4	0.05	)
(	0.05	0.38	0.05	)
(	0.05	0.36	0.05	)
(	0.05	0.34	0.05	)
(	0.05	0.32	0.05	)
(	0.05	0.3	0.05	)
(	0.05	0.28	0.05	)
(	0.05	0.26	0.05	)
(	0.05	0.24	0.05	)
(	0.05	0.22	0.05	)
(	0.05	0.2	0.05	)
(	0.05	0.18	0.05	)
(	0.05	0.16	0.05	)
(	0.05	0.14	0.05	)
(	0.05	0.12	0.05	)
(	0.05	0.1	0.05	)
(	0.05	0.08	0.05	)
(	0.05	0.06	0.05	)
(	0.09	0.8	0.05	)
(	0.09	0.78	0.05	)
(	0.09	0.76	0.05	)
(	0.09	0.74	0.05	)
(	0.09	0.72	0.05	)
(	0.09	0.7	0.05	)
(	0.09	0.68	0.05	)
(	0.09	0.66	0.05	)
(	0.09	0.64	0.05	)
(	0.09	0.62	0.05	)
(	0.09	0.6	0.05	)
(	0.09	0.58	0.05	)
(	0.09	0.56	0.05	)
(	0.09	0.54	0.05	)
(	0.09	0.52	0.05	)
(	0.09	0.5	0.05	)
(	0.09	0.48	0.05	)
(	0.09	0.46	0.05	)
(	0.09	0.44	0.05	)
(	0.09	0.42	0.05	)
(	0.09	0.4	0.05	)
(	0.09	0.38	0.05	)
(	0.09	0.36	0.05	)
(	0.09	0.34	0.05	)
(	0.09	0.32	0.05	)
(	0.09	0.3	0.05	)
(	0.09	0.28	0.05	)
(	0.09	0.26	0.05	)
(	0.09	0.24	0.05	)
(	0.09	0.22	0.05	)
(	0.09	0.2	0.05	)
(	0.09	0.18	0.05	)
(	0.09	0.16	0.05	)
(	0.09	0.14	0.05	)
(	0.09	0.12	0.05	)
(	0.09	0.1	0.05	)
(	0.09	0.08	0.05	)
(	0.09	0.06	0.05	)


)

// ************************************************************************* //
